<?xml version="1.0" encoding="UTF-8"?>

<!-- generated on 2023-11-25 12:50:18 by Eclipse SUMO netedit Version 1.18.0
<configuration xmlns:xsi="http://www.w3.org/2001/XMLSchema-instance" xsi:noNamespaceSchemaLocation="http://sumo.dlr.de/xsd/neteditConfiguration.xsd">

    <input>
        <sumo-net-file value="C:\Users\chuny\Desktop\OSM_RandomTrips\netedit_test.net.xml"/>
    </input>

    <output>
        <output-file value="C:\Users\chuny\Desktop\OSM_RandomTrips\netedit_test.net.xml"/>
    </output>

    <processing>
        <geometry.min-radius.fix.railways value="false"/>
        <geometry.max-grade.fix value="false"/>
        <offset.disable-normalization value="true"/>
        <lefthand value="0"/>
    </processing>

    <junctions>
        <no-turnarounds value="true"/>
        <junctions.corner-detail value="5"/>
        <junctions.limit-turn-speed value="5.50"/>
        <rectangular-lane-cut value="0"/>
    </junctions>

    <pedestrian>
        <walkingareas value="0"/>
    </pedestrian>

</configuration>
-->

<net version="1.16" junctionCornerDetail="5" limitTurnSpeed="5.50" xmlns:xsi="http://www.w3.org/2001/XMLSchema-instance" xsi:noNamespaceSchemaLocation="http://sumo.dlr.de/xsd/net_file.xsd">

    <location netOffset="0.00,0.00" convBoundary="-300.00,-100.00,0.00,200.00" origBoundary="-10000000000.00,-10000000000.00,10000000000.00,10000000000.00" projParameter="!"/>

    <edge id=":J0_0" function="internal">
        <lane id=":J0_0_0" index="0" speed="6.51" length="9.03" shape="-204.80,10.40 -205.15,7.95 -206.20,6.20 -207.95,5.15 -210.40,4.80"/>
    </edge>
    <edge id=":J0_1" function="internal">
        <lane id=":J0_1_0" index="0" speed="13.89" length="20.80" shape="-204.80,10.40 -204.80,-10.40"/>
        <lane id=":J0_1_1" index="1" speed="13.89" length="20.80" shape="-201.60,10.40 -201.60,-10.40"/>
    </edge>
    <edge id=":J0_3" function="internal">
        <lane id=":J0_3_0" index="0" speed="9.26" length="5.01" shape="-201.60,10.40 -200.89,5.44"/>
    </edge>
    <edge id=":J0_16" function="internal">
        <lane id=":J0_16_0" index="0" speed="9.26" length="14.34" shape="-200.89,5.44 -200.85,5.15 -198.60,1.40 -194.85,-0.85 -189.60,-1.60"/>
    </edge>
    <edge id=":J0_4" function="internal">
        <lane id=":J0_4_0" index="0" speed="6.51" length="9.03" shape="-189.60,4.80 -192.05,5.15 -193.80,6.20 -194.85,7.95 -195.20,10.40"/>
    </edge>
    <edge id=":J0_5" function="internal">
        <lane id=":J0_5_0" index="0" speed="13.89" length="20.80" shape="-189.60,4.80 -210.40,4.80"/>
        <lane id=":J0_5_1" index="1" speed="13.89" length="20.80" shape="-189.60,1.60 -210.40,1.60"/>
    </edge>
    <edge id=":J0_7" function="internal">
        <lane id=":J0_7_0" index="0" speed="9.26" length="5.01" shape="-189.60,1.60 -194.56,0.89"/>
    </edge>
    <edge id=":J0_17" function="internal">
        <lane id=":J0_17_0" index="0" speed="9.26" length="14.34" shape="-194.56,0.89 -194.85,0.85 -198.60,-1.40 -200.85,-5.15 -201.60,-10.40"/>
    </edge>
    <edge id=":J0_8" function="internal">
        <lane id=":J0_8_0" index="0" speed="6.51" length="9.03" shape="-195.20,-10.40 -194.85,-7.95 -193.80,-6.20 -192.05,-5.15 -189.60,-4.80"/>
    </edge>
    <edge id=":J0_9" function="internal">
        <lane id=":J0_9_0" index="0" speed="13.89" length="20.80" shape="-195.20,-10.40 -195.20,10.40"/>
        <lane id=":J0_9_1" index="1" speed="13.89" length="20.80" shape="-198.40,-10.40 -198.40,10.40"/>
    </edge>
    <edge id=":J0_11" function="internal">
        <lane id=":J0_11_0" index="0" speed="9.26" length="5.01" shape="-198.40,-10.40 -199.11,-5.44"/>
    </edge>
    <edge id=":J0_18" function="internal">
        <lane id=":J0_18_0" index="0" speed="9.26" length="14.34" shape="-199.11,-5.44 -199.15,-5.15 -201.40,-1.40 -205.15,0.85 -210.40,1.60"/>
    </edge>
    <edge id=":J0_12" function="internal">
        <lane id=":J0_12_0" index="0" speed="6.51" length="9.03" shape="-210.40,-4.80 -207.95,-5.15 -206.20,-6.20 -205.15,-7.95 -204.80,-10.40"/>
    </edge>
    <edge id=":J0_13" function="internal">
        <lane id=":J0_13_0" index="0" speed="13.89" length="20.80" shape="-210.40,-4.80 -189.60,-4.80"/>
        <lane id=":J0_13_1" index="1" speed="13.89" length="20.80" shape="-210.40,-1.60 -189.60,-1.60"/>
    </edge>
    <edge id=":J0_15" function="internal">
        <lane id=":J0_15_0" index="0" speed="9.26" length="5.01" shape="-210.40,-1.60 -205.44,-0.89"/>
    </edge>
    <edge id=":J0_19" function="internal">
        <lane id=":J0_19_0" index="0" speed="9.26" length="14.34" shape="-205.44,-0.89 -205.15,-0.85 -201.40,1.40 -199.15,5.15 -198.40,10.40"/>
    </edge>
    <edge id=":J1_0" function="internal">
        <lane id=":J1_0_0" index="0" speed="6.51" length="9.03" shape="-104.80,110.40 -105.15,107.95 -106.20,106.20 -107.95,105.15 -110.40,104.80"/>
    </edge>
    <edge id=":J1_1" function="internal">
        <lane id=":J1_1_0" index="0" speed="13.89" length="20.80" shape="-104.80,110.40 -104.80,89.60"/>
        <lane id=":J1_1_1" index="1" speed="13.89" length="20.80" shape="-101.60,110.40 -101.60,89.60"/>
    </edge>
    <edge id=":J1_3" function="internal">
        <lane id=":J1_3_0" index="0" speed="9.26" length="5.01" shape="-101.60,110.40 -100.89,105.44"/>
    </edge>
    <edge id=":J1_16" function="internal">
        <lane id=":J1_16_0" index="0" speed="9.26" length="14.34" shape="-100.89,105.44 -100.85,105.15 -98.60,101.40 -94.85,99.15 -89.60,98.40"/>
    </edge>
    <edge id=":J1_4" function="internal">
        <lane id=":J1_4_0" index="0" speed="6.51" length="9.03" shape="-89.60,104.80 -92.05,105.15 -93.80,106.20 -94.85,107.95 -95.20,110.40"/>
    </edge>
    <edge id=":J1_5" function="internal">
        <lane id=":J1_5_0" index="0" speed="13.89" length="20.80" shape="-89.60,104.80 -110.40,104.80"/>
        <lane id=":J1_5_1" index="1" speed="13.89" length="20.80" shape="-89.60,101.60 -110.40,101.60"/>
    </edge>
    <edge id=":J1_7" function="internal">
        <lane id=":J1_7_0" index="0" speed="9.26" length="5.01" shape="-89.60,101.60 -94.56,100.89"/>
    </edge>
    <edge id=":J1_17" function="internal">
        <lane id=":J1_17_0" index="0" speed="9.26" length="14.34" shape="-94.56,100.89 -94.85,100.85 -98.60,98.60 -100.85,94.85 -101.60,89.60"/>
    </edge>
    <edge id=":J1_8" function="internal">
        <lane id=":J1_8_0" index="0" speed="6.51" length="9.03" shape="-95.20,89.60 -94.85,92.05 -93.80,93.80 -92.05,94.85 -89.60,95.20"/>
    </edge>
    <edge id=":J1_9" function="internal">
        <lane id=":J1_9_0" index="0" speed="13.89" length="20.80" shape="-95.20,89.60 -95.20,110.40"/>
        <lane id=":J1_9_1" index="1" speed="13.89" length="20.80" shape="-98.40,89.60 -98.40,110.40"/>
    </edge>
    <edge id=":J1_11" function="internal">
        <lane id=":J1_11_0" index="0" speed="9.26" length="5.01" shape="-98.40,89.60 -99.11,94.56"/>
    </edge>
    <edge id=":J1_18" function="internal">
        <lane id=":J1_18_0" index="0" speed="9.26" length="14.34" shape="-99.11,94.56 -99.15,94.85 -101.40,98.60 -105.15,100.85 -110.40,101.60"/>
    </edge>
    <edge id=":J1_12" function="internal">
        <lane id=":J1_12_0" index="0" speed="6.51" length="9.03" shape="-110.40,95.20 -107.95,94.85 -106.20,93.80 -105.15,92.05 -104.80,89.60"/>
    </edge>
    <edge id=":J1_13" function="internal">
        <lane id=":J1_13_0" index="0" speed="13.89" length="20.80" shape="-110.40,95.20 -89.60,95.20"/>
        <lane id=":J1_13_1" index="1" speed="13.89" length="20.80" shape="-110.40,98.40 -89.60,98.40"/>
    </edge>
    <edge id=":J1_15" function="internal">
        <lane id=":J1_15_0" index="0" speed="9.26" length="5.01" shape="-110.40,98.40 -105.44,99.11"/>
    </edge>
    <edge id=":J1_19" function="internal">
        <lane id=":J1_19_0" index="0" speed="9.26" length="14.34" shape="-105.44,99.11 -105.15,99.15 -101.40,101.40 -99.15,105.15 -98.40,110.40"/>
    </edge>
    <edge id=":J2_0" function="internal">
        <lane id=":J2_0_0" index="0" speed="6.51" length="9.03" shape="-104.80,10.40 -105.15,7.95 -106.20,6.20 -107.95,5.15 -110.40,4.80"/>
    </edge>
    <edge id=":J2_1" function="internal">
        <lane id=":J2_1_0" index="0" speed="13.89" length="20.80" shape="-104.80,10.40 -104.80,-10.40"/>
        <lane id=":J2_1_1" index="1" speed="13.89" length="20.80" shape="-101.60,10.40 -101.60,-10.40"/>
    </edge>
    <edge id=":J2_3" function="internal">
        <lane id=":J2_3_0" index="0" speed="9.26" length="5.01" shape="-101.60,10.40 -100.89,5.44"/>
    </edge>
    <edge id=":J2_16" function="internal">
        <lane id=":J2_16_0" index="0" speed="9.26" length="14.34" shape="-100.89,5.44 -100.85,5.15 -98.60,1.40 -94.85,-0.85 -89.60,-1.60"/>
    </edge>
    <edge id=":J2_4" function="internal">
        <lane id=":J2_4_0" index="0" speed="6.51" length="9.03" shape="-89.60,4.80 -92.05,5.15 -93.80,6.20 -94.85,7.95 -95.20,10.40"/>
    </edge>
    <edge id=":J2_5" function="internal">
        <lane id=":J2_5_0" index="0" speed="13.89" length="20.80" shape="-89.60,4.80 -110.40,4.80"/>
        <lane id=":J2_5_1" index="1" speed="13.89" length="20.80" shape="-89.60,1.60 -110.40,1.60"/>
    </edge>
    <edge id=":J2_7" function="internal">
        <lane id=":J2_7_0" index="0" speed="9.26" length="5.01" shape="-89.60,1.60 -94.56,0.89"/>
    </edge>
    <edge id=":J2_17" function="internal">
        <lane id=":J2_17_0" index="0" speed="9.26" length="14.34" shape="-94.56,0.89 -94.85,0.85 -98.60,-1.40 -100.85,-5.15 -101.60,-10.40"/>
    </edge>
    <edge id=":J2_8" function="internal">
        <lane id=":J2_8_0" index="0" speed="6.51" length="9.03" shape="-95.20,-10.40 -94.85,-7.95 -93.80,-6.20 -92.05,-5.15 -89.60,-4.80"/>
    </edge>
    <edge id=":J2_9" function="internal">
        <lane id=":J2_9_0" index="0" speed="13.89" length="20.80" shape="-95.20,-10.40 -95.20,10.40"/>
        <lane id=":J2_9_1" index="1" speed="13.89" length="20.80" shape="-98.40,-10.40 -98.40,10.40"/>
    </edge>
    <edge id=":J2_11" function="internal">
        <lane id=":J2_11_0" index="0" speed="9.26" length="5.01" shape="-98.40,-10.40 -99.11,-5.44"/>
    </edge>
    <edge id=":J2_18" function="internal">
        <lane id=":J2_18_0" index="0" speed="9.26" length="14.34" shape="-99.11,-5.44 -99.15,-5.15 -101.40,-1.40 -105.15,0.85 -110.40,1.60"/>
    </edge>
    <edge id=":J2_12" function="internal">
        <lane id=":J2_12_0" index="0" speed="6.51" length="9.03" shape="-110.40,-4.80 -107.95,-5.15 -106.20,-6.20 -105.15,-7.95 -104.80,-10.40"/>
    </edge>
    <edge id=":J2_13" function="internal">
        <lane id=":J2_13_0" index="0" speed="13.89" length="20.80" shape="-110.40,-4.80 -89.60,-4.80"/>
        <lane id=":J2_13_1" index="1" speed="13.89" length="20.80" shape="-110.40,-1.60 -89.60,-1.60"/>
    </edge>
    <edge id=":J2_15" function="internal">
        <lane id=":J2_15_0" index="0" speed="9.26" length="5.01" shape="-110.40,-1.60 -105.44,-0.89"/>
    </edge>
    <edge id=":J2_19" function="internal">
        <lane id=":J2_19_0" index="0" speed="9.26" length="14.34" shape="-105.44,-0.89 -105.15,-0.85 -101.40,1.40 -99.15,5.15 -98.40,10.40"/>
    </edge>
    <edge id=":J5_0" function="internal">
        <lane id=":J5_0_0" index="0" speed="6.51" length="9.03" shape="-204.80,110.40 -205.15,107.95 -206.20,106.20 -207.95,105.15 -210.40,104.80"/>
    </edge>
    <edge id=":J5_1" function="internal">
        <lane id=":J5_1_0" index="0" speed="13.89" length="20.80" shape="-204.80,110.40 -204.80,89.60"/>
        <lane id=":J5_1_1" index="1" speed="13.89" length="20.80" shape="-201.60,110.40 -201.60,89.60"/>
    </edge>
    <edge id=":J5_3" function="internal">
        <lane id=":J5_3_0" index="0" speed="9.26" length="5.01" shape="-201.60,110.40 -200.89,105.44"/>
    </edge>
    <edge id=":J5_16" function="internal">
        <lane id=":J5_16_0" index="0" speed="9.26" length="14.34" shape="-200.89,105.44 -200.85,105.15 -198.60,101.40 -194.85,99.15 -189.60,98.40"/>
    </edge>
    <edge id=":J5_4" function="internal">
        <lane id=":J5_4_0" index="0" speed="6.51" length="9.03" shape="-189.60,104.80 -192.05,105.15 -193.80,106.20 -194.85,107.95 -195.20,110.40"/>
    </edge>
    <edge id=":J5_5" function="internal">
        <lane id=":J5_5_0" index="0" speed="13.89" length="20.80" shape="-189.60,104.80 -210.40,104.80"/>
        <lane id=":J5_5_1" index="1" speed="13.89" length="20.80" shape="-189.60,101.60 -210.40,101.60"/>
    </edge>
    <edge id=":J5_7" function="internal">
        <lane id=":J5_7_0" index="0" speed="9.26" length="5.01" shape="-189.60,101.60 -194.56,100.89"/>
    </edge>
    <edge id=":J5_17" function="internal">
        <lane id=":J5_17_0" index="0" speed="9.26" length="14.34" shape="-194.56,100.89 -194.85,100.85 -198.60,98.60 -200.85,94.85 -201.60,89.60"/>
    </edge>
    <edge id=":J5_8" function="internal">
        <lane id=":J5_8_0" index="0" speed="6.51" length="9.03" shape="-195.20,89.60 -194.85,92.05 -193.80,93.80 -192.05,94.85 -189.60,95.20"/>
    </edge>
    <edge id=":J5_9" function="internal">
        <lane id=":J5_9_0" index="0" speed="13.89" length="20.80" shape="-195.20,89.60 -195.20,110.40"/>
        <lane id=":J5_9_1" index="1" speed="13.89" length="20.80" shape="-198.40,89.60 -198.40,110.40"/>
    </edge>
    <edge id=":J5_11" function="internal">
        <lane id=":J5_11_0" index="0" speed="9.26" length="5.01" shape="-198.40,89.60 -199.11,94.56"/>
    </edge>
    <edge id=":J5_18" function="internal">
        <lane id=":J5_18_0" index="0" speed="9.26" length="14.34" shape="-199.11,94.56 -199.15,94.85 -201.40,98.60 -205.15,100.85 -210.40,101.60"/>
    </edge>
    <edge id=":J5_12" function="internal">
        <lane id=":J5_12_0" index="0" speed="6.51" length="9.03" shape="-210.40,95.20 -207.95,94.85 -206.20,93.80 -205.15,92.05 -204.80,89.60"/>
    </edge>
    <edge id=":J5_13" function="internal">
        <lane id=":J5_13_0" index="0" speed="13.89" length="20.80" shape="-210.40,95.20 -189.60,95.20"/>
        <lane id=":J5_13_1" index="1" speed="13.89" length="20.80" shape="-210.40,98.40 -189.60,98.40"/>
    </edge>
    <edge id=":J5_15" function="internal">
        <lane id=":J5_15_0" index="0" speed="9.26" length="5.01" shape="-210.40,98.40 -205.44,99.11"/>
    </edge>
    <edge id=":J5_19" function="internal">
        <lane id=":J5_19_0" index="0" speed="9.26" length="14.34" shape="-205.44,99.11 -205.15,99.15 -201.40,101.40 -199.15,105.15 -198.40,110.40"/>
    </edge>

    <edge id="-E0" from="J2" to="J1" priority="-1">
        <lane id="-E0_0" index="0" speed="13.89" length="79.20" shape="-95.20,10.40 -95.20,89.60"/>
        <lane id="-E0_1" index="1" speed="13.89" length="79.20" shape="-98.40,10.40 -98.40,89.60"/>
    </edge>
    <edge id="-E1" from="J3" to="J1" priority="-1">
        <lane id="-E1_0" index="0" speed="13.89" length="89.60" shape="-104.80,200.00 -104.80,110.40"/>
        <lane id="-E1_1" index="1" speed="13.89" length="89.60" shape="-101.60,200.00 -101.60,110.40"/>
    </edge>
    <edge id="-E10" from="J10" to="J0" priority="-1">
        <lane id="-E10_0" index="0" speed="13.89" length="89.60" shape="-300.00,-4.80 -210.40,-4.80"/>
        <lane id="-E10_1" index="1" speed="13.89" length="89.60" shape="-300.00,-1.60 -210.40,-1.60"/>
    </edge>
    <edge id="-E11" from="J11" to="J2" priority="-1">
        <lane id="-E11_0" index="0" speed="13.89" length="89.60" shape="0.00,4.80 -89.60,4.80"/>
        <lane id="-E11_1" index="1" speed="13.89" length="89.60" shape="0.00,1.60 -89.60,1.60"/>
    </edge>
    <edge id="-E2" from="J1" to="J4" priority="-1">
        <lane id="-E2_0" index="0" speed="13.89" length="89.60" shape="-89.60,95.20 0.00,95.20"/>
        <lane id="-E2_1" index="1" speed="13.89" length="89.60" shape="-89.60,98.40 0.00,98.40"/>
    </edge>
    <edge id="-E3" from="J1" to="J5" priority="-1">
        <lane id="-E3_0" index="0" speed="13.89" length="79.20" shape="-110.40,104.80 -189.60,104.80"/>
        <lane id="-E3_1" index="1" speed="13.89" length="79.20" shape="-110.40,101.60 -189.60,101.60"/>
    </edge>
    <edge id="-E4" from="J0" to="J5" priority="-1">
        <lane id="-E4_0" index="0" speed="13.89" length="79.20" shape="-195.20,10.40 -195.20,89.60"/>
        <lane id="-E4_1" index="1" speed="13.89" length="79.20" shape="-198.40,10.40 -198.40,89.60"/>
    </edge>
    <edge id="-E5" from="J6" to="J5" priority="-1">
        <lane id="-E5_0" index="0" speed="13.89" length="89.60" shape="-204.80,200.00 -204.80,110.40"/>
        <lane id="-E5_1" index="1" speed="13.89" length="89.60" shape="-201.60,200.00 -201.60,110.40"/>
    </edge>
    <edge id="-E6" from="J7" to="J5" priority="-1">
        <lane id="-E6_0" index="0" speed="13.89" length="89.60" shape="-300.00,95.20 -210.40,95.20"/>
        <lane id="-E6_1" index="1" speed="13.89" length="89.60" shape="-300.00,98.40 -210.40,98.40"/>
    </edge>
    <edge id="-E7" from="J2" to="J0" priority="-1">
        <lane id="-E7_0" index="0" speed="13.89" length="79.20" shape="-110.40,4.80 -189.60,4.80"/>
        <lane id="-E7_1" index="1" speed="13.89" length="79.20" shape="-110.40,1.60 -189.60,1.60"/>
    </edge>
    <edge id="-E8" from="J8" to="J0" priority="-1">
        <lane id="-E8_0" index="0" speed="13.89" length="89.60" shape="-195.20,-100.00 -195.20,-10.40"/>
        <lane id="-E8_1" index="1" speed="13.89" length="89.60" shape="-198.40,-100.00 -198.40,-10.40"/>
    </edge>
    <edge id="-E9" from="J9" to="J2" priority="-1">
        <lane id="-E9_0" index="0" speed="13.89" length="89.60" shape="-95.20,-100.00 -95.20,-10.40"/>
        <lane id="-E9_1" index="1" speed="13.89" length="89.60" shape="-98.40,-100.00 -98.40,-10.40"/>
    </edge>
    <edge id="E0" from="J1" to="J2" priority="-1">
        <lane id="E0_0" index="0" speed="13.89" length="79.20" shape="-104.80,89.60 -104.80,10.40"/>
        <lane id="E0_1" index="1" speed="13.89" length="79.20" shape="-101.60,89.60 -101.60,10.40"/>
    </edge>
    <edge id="E1" from="J1" to="J3" priority="-1">
        <lane id="E1_0" index="0" speed="13.89" length="89.60" shape="-95.20,110.40 -95.20,200.00"/>
        <lane id="E1_1" index="1" speed="13.89" length="89.60" shape="-98.40,110.40 -98.40,200.00"/>
    </edge>
    <edge id="E10" from="J0" to="J10" priority="-1">
        <lane id="E10_0" index="0" speed="13.89" length="89.60" shape="-210.40,4.80 -300.00,4.80"/>
        <lane id="E10_1" index="1" speed="13.89" length="89.60" shape="-210.40,1.60 -300.00,1.60"/>
    </edge>
    <edge id="E11" from="J2" to="J11" priority="-1">
        <lane id="E11_0" index="0" speed="13.89" length="89.60" shape="-89.60,-4.80 0.00,-4.80"/>
        <lane id="E11_1" index="1" speed="13.89" length="89.60" shape="-89.60,-1.60 0.00,-1.60"/>
    </edge>
    <edge id="E2" from="J4" to="J1" priority="-1">
        <lane id="E2_0" index="0" speed="13.89" length="89.60" shape="0.00,104.80 -89.60,104.80"/>
        <lane id="E2_1" index="1" speed="13.89" length="89.60" shape="0.00,101.60 -89.60,101.60"/>
    </edge>
    <edge id="E3" from="J5" to="J1" priority="-1">
        <lane id="E3_0" index="0" speed="13.89" length="79.20" shape="-189.60,95.20 -110.40,95.20"/>
        <lane id="E3_1" index="1" speed="13.89" length="79.20" shape="-189.60,98.40 -110.40,98.40"/>
    </edge>
    <edge id="E4" from="J5" to="J0" priority="-1">
        <lane id="E4_0" index="0" speed="13.89" length="79.20" shape="-204.80,89.60 -204.80,10.40"/>
        <lane id="E4_1" index="1" speed="13.89" length="79.20" shape="-201.60,89.60 -201.60,10.40"/>
    </edge>
    <edge id="E5" from="J5" to="J6" priority="-1">
        <lane id="E5_0" index="0" speed="13.89" length="89.60" shape="-195.20,110.40 -195.20,200.00"/>
        <lane id="E5_1" index="1" speed="13.89" length="89.60" shape="-198.40,110.40 -198.40,200.00"/>
    </edge>
    <edge id="E6" from="J5" to="J7" priority="-1">
        <lane id="E6_0" index="0" speed="13.89" length="89.60" shape="-210.40,104.80 -300.00,104.80"/>
        <lane id="E6_1" index="1" speed="13.89" length="89.60" shape="-210.40,101.60 -300.00,101.60"/>
    </edge>
    <edge id="E7" from="J0" to="J2" priority="-1">
        <lane id="E7_0" index="0" speed="13.89" length="79.20" shape="-189.60,-4.80 -110.40,-4.80"/>
        <lane id="E7_1" index="1" speed="13.89" length="79.20" shape="-189.60,-1.60 -110.40,-1.60"/>
    </edge>
    <edge id="E8" from="J0" to="J8" priority="-1">
        <lane id="E8_0" index="0" speed="13.89" length="89.60" shape="-204.80,-10.40 -204.80,-100.00"/>
        <lane id="E8_1" index="1" speed="13.89" length="89.60" shape="-201.60,-10.40 -201.60,-100.00"/>
    </edge>
    <edge id="E9" from="J2" to="J9" priority="-1">
        <lane id="E9_0" index="0" speed="13.89" length="89.60" shape="-104.80,-10.40 -104.80,-100.00"/>
        <lane id="E9_1" index="1" speed="13.89" length="89.60" shape="-101.60,-10.40 -101.60,-100.00"/>
    </edge>

    <tlLogic id="J0" type="static" programID="0" offset="0">
        <phase duration="42" state="GGGgrrrrGGGgrrrr"/>
        <phase duration="3"  state="yyyyrrrryyyyrrrr"/>
        <phase duration="42" state="rrrrGGGgrrrrGGGg"/>
        <phase duration="3"  state="rrrryyyyrrrryyyy"/>
    </tlLogic>
    <tlLogic id="J1" type="static" programID="0" offset="0">
        <phase duration="42" state="GGGgrrrrGGGgrrrr"/>
        <phase duration="3"  state="yyyyrrrryyyyrrrr"/>
        <phase duration="42" state="rrrrGGGgrrrrGGGg"/>
        <phase duration="3"  state="rrrryyyyrrrryyyy"/>
    </tlLogic>
    <tlLogic id="J1" type="static" programID="1" offset="0">
        <phase duration="42" state="GGGgrrrrGGGgrrrr"/>
        <phase duration="3"  state="yyyyrrrryyyyrrrr"/>
        <phase duration="42" state="rrrrGGGgrrrrGGGg"/>
        <phase duration="3"  state="rrrryyyyrrrryyyy"/>
    </tlLogic>
    <tlLogic id="J2" type="static" programID="0" offset="0">
        <phase duration="42" state="GGGgrrrrGGGgrrrr"/>
        <phase duration="3"  state="yyyyrrrryyyyrrrr"/>
        <phase duration="42" state="rrrrGGGgrrrrGGGg"/>
        <phase duration="3"  state="rrrryyyyrrrryyyy"/>
    </tlLogic>
    <tlLogic id="J5" type="static" programID="0" offset="0">
        <phase duration="42" state="GGGgrrrrGGGgrrrr"/>
        <phase duration="3"  state="yyyyrrrryyyyrrrr"/>
        <phase duration="42" state="rrrrGGGgrrrrGGGg"/>
        <phase duration="3"  state="rrrryyyyrrrryyyy"/>
    </tlLogic>

    <junction id="J0" type="traffic_light" x="-200.00" y="0.00" incLanes="E4_0 E4_1 -E7_0 -E7_1 -E8_0 -E8_1 -E10_0 -E10_1" intLanes=":J0_0_0 :J0_1_0 :J0_1_1 :J0_16_0 :J0_4_0 :J0_5_0 :J0_5_1 :J0_17_0 :J0_8_0 :J0_9_0 :J0_9_1 :J0_18_0 :J0_12_0 :J0_13_0 :J0_13_1 :J0_19_0" shape="-206.40,10.40 -193.60,10.40 -193.16,8.18 -192.60,7.40 -191.82,6.84 -190.82,6.51 -189.60,6.40 -189.60,-6.40 -191.82,-6.84 -192.60,-7.40 -193.16,-8.18 -193.49,-9.18 -193.60,-10.40 -206.40,-10.40 -206.84,-8.18 -207.40,-7.40 -208.18,-6.84 -209.18,-6.51 -210.40,-6.40 -210.40,6.40 -208.18,6.84 -207.40,7.40 -206.84,8.18 -206.51,9.18">
        <request index="0"  response="0000000000000000" foes="0000000001100000" cont="0"/>
        <request index="1"  response="1000000010000000" foes="1111100011100000" cont="0"/>
        <request index="2"  response="1000000010000000" foes="1111100011100000" cont="0"/>
        <request index="3"  response="1000011010000000" foes="1110011011100000" cont="1"/>
        <request index="4"  response="0000011000000000" foes="0000011000000000" cont="0"/>
        <request index="5"  response="0000111000001111" foes="1000111000001111" cont="0"/>
        <request index="6"  response="0000111000001111" foes="1000111000001111" cont="0"/>
        <request index="7"  response="0110111000001110" foes="0110111000001110" cont="1"/>
        <request index="8"  response="0000000000000000" foes="0110000000000000" cont="0"/>
        <request index="9"  response="1000000010000000" foes="1110000011111000" cont="0"/>
        <request index="10" response="1000000010000000" foes="1110000011111000" cont="0"/>
        <request index="11" response="1000000010000110" foes="1110000011100110" cont="1"/>
        <request index="12" response="0000000000000110" foes="0000000000000110" cont="0"/>
        <request index="13" response="0000111100001110" foes="0000111110001110" cont="0"/>
        <request index="14" response="0000111100001110" foes="0000111110001110" cont="0"/>
        <request index="15" response="0000111001101110" foes="0000111001101110" cont="1"/>
    </junction>
    <junction id="J1" type="traffic_light" x="-100.00" y="100.00" incLanes="-E1_0 -E1_1 E2_0 E2_1 -E0_0 -E0_1 E3_0 E3_1" intLanes=":J1_0_0 :J1_1_0 :J1_1_1 :J1_16_0 :J1_4_0 :J1_5_0 :J1_5_1 :J1_17_0 :J1_8_0 :J1_9_0 :J1_9_1 :J1_18_0 :J1_12_0 :J1_13_0 :J1_13_1 :J1_19_0" shape="-106.40,110.40 -93.60,110.40 -93.16,108.18 -92.60,107.40 -91.82,106.84 -90.82,106.51 -89.60,106.40 -89.60,93.60 -91.82,93.16 -92.60,92.60 -93.16,91.82 -93.49,90.82 -93.60,89.60 -106.40,89.60 -106.84,91.82 -107.40,92.60 -108.18,93.16 -109.18,93.49 -110.40,93.60 -110.40,106.40 -108.18,106.84 -107.40,107.40 -106.84,108.18 -106.51,109.18">
        <request index="0"  response="0000000000000000" foes="0000000001100000" cont="0"/>
        <request index="1"  response="1000000010000000" foes="1111100011100000" cont="0"/>
        <request index="2"  response="1000000010000000" foes="1111100011100000" cont="0"/>
        <request index="3"  response="1000011010000000" foes="1110011011100000" cont="1"/>
        <request index="4"  response="0000011000000000" foes="0000011000000000" cont="0"/>
        <request index="5"  response="0000111000001111" foes="1000111000001111" cont="0"/>
        <request index="6"  response="0000111000001111" foes="1000111000001111" cont="0"/>
        <request index="7"  response="0110111000001110" foes="0110111000001110" cont="1"/>
        <request index="8"  response="0000000000000000" foes="0110000000000000" cont="0"/>
        <request index="9"  response="1000000010000000" foes="1110000011111000" cont="0"/>
        <request index="10" response="1000000010000000" foes="1110000011111000" cont="0"/>
        <request index="11" response="1000000010000110" foes="1110000011100110" cont="1"/>
        <request index="12" response="0000000000000110" foes="0000000000000110" cont="0"/>
        <request index="13" response="0000111100001110" foes="0000111110001110" cont="0"/>
        <request index="14" response="0000111100001110" foes="0000111110001110" cont="0"/>
        <request index="15" response="0000111001101110" foes="0000111001101110" cont="1"/>
    </junction>
    <junction id="J10" type="dead_end" x="-300.00" y="0.00" incLanes="E10_0 E10_1" intLanes="" shape="-300.00,0.00 -300.00,6.40 -300.00,0.00"/>
    <junction id="J11" type="dead_end" x="0.00" y="0.00" incLanes="E11_0 E11_1" intLanes="" shape="0.00,0.00 0.00,-6.40 0.00,0.00"/>
    <junction id="J2" type="traffic_light" x="-100.00" y="0.00" incLanes="E0_0 E0_1 -E11_0 -E11_1 -E9_0 -E9_1 E7_0 E7_1" intLanes=":J2_0_0 :J2_1_0 :J2_1_1 :J2_16_0 :J2_4_0 :J2_5_0 :J2_5_1 :J2_17_0 :J2_8_0 :J2_9_0 :J2_9_1 :J2_18_0 :J2_12_0 :J2_13_0 :J2_13_1 :J2_19_0" shape="-106.40,10.40 -93.60,10.40 -93.16,8.18 -92.60,7.40 -91.82,6.84 -90.82,6.51 -89.60,6.40 -89.60,-6.40 -91.82,-6.84 -92.60,-7.40 -93.16,-8.18 -93.49,-9.18 -93.60,-10.40 -106.40,-10.40 -106.84,-8.18 -107.40,-7.40 -108.18,-6.84 -109.18,-6.51 -110.40,-6.40 -110.40,6.40 -108.18,6.84 -107.40,7.40 -106.84,8.18 -106.51,9.18">
        <request index="0"  response="0000000000000000" foes="0000000001100000" cont="0"/>
        <request index="1"  response="1000000010000000" foes="1111100011100000" cont="0"/>
        <request index="2"  response="1000000010000000" foes="1111100011100000" cont="0"/>
        <request index="3"  response="1000011010000000" foes="1110011011100000" cont="1"/>
        <request index="4"  response="0000011000000000" foes="0000011000000000" cont="0"/>
        <request index="5"  response="0000111000001111" foes="1000111000001111" cont="0"/>
        <request index="6"  response="0000111000001111" foes="1000111000001111" cont="0"/>
        <request index="7"  response="0110111000001110" foes="0110111000001110" cont="1"/>
        <request index="8"  response="0000000000000000" foes="0110000000000000" cont="0"/>
        <request index="9"  response="1000000010000000" foes="1110000011111000" cont="0"/>
        <request index="10" response="1000000010000000" foes="1110000011111000" cont="0"/>
        <request index="11" response="1000000010000110" foes="1110000011100110" cont="1"/>
        <request index="12" response="0000000000000110" foes="0000000000000110" cont="0"/>
        <request index="13" response="0000111100001110" foes="0000111110001110" cont="0"/>
        <request index="14" response="0000111100001110" foes="0000111110001110" cont="0"/>
        <request index="15" response="0000111001101110" foes="0000111001101110" cont="1"/>
    </junction>
    <junction id="J3" type="dead_end" x="-100.00" y="200.00" incLanes="E1_0 E1_1" intLanes="" shape="-100.00,200.00 -93.60,200.00 -100.00,200.00"/>
    <junction id="J4" type="dead_end" x="0.00" y="100.00" incLanes="-E2_0 -E2_1" intLanes="" shape="0.00,100.00 0.00,93.60 0.00,100.00"/>
    <junction id="J5" type="traffic_light" x="-200.00" y="100.00" incLanes="-E5_0 -E5_1 -E3_0 -E3_1 -E4_0 -E4_1 -E6_0 -E6_1" intLanes=":J5_0_0 :J5_1_0 :J5_1_1 :J5_16_0 :J5_4_0 :J5_5_0 :J5_5_1 :J5_17_0 :J5_8_0 :J5_9_0 :J5_9_1 :J5_18_0 :J5_12_0 :J5_13_0 :J5_13_1 :J5_19_0" shape="-206.40,110.40 -193.60,110.40 -193.16,108.18 -192.60,107.40 -191.82,106.84 -190.82,106.51 -189.60,106.40 -189.60,93.60 -191.82,93.16 -192.60,92.60 -193.16,91.82 -193.49,90.82 -193.60,89.60 -206.40,89.60 -206.84,91.82 -207.40,92.60 -208.18,93.16 -209.18,93.49 -210.40,93.60 -210.40,106.40 -208.18,106.84 -207.40,107.40 -206.84,108.18 -206.51,109.18">
        <request index="0"  response="0000000000000000" foes="0000000001100000" cont="0"/>
        <request index="1"  response="1000000010000000" foes="1111100011100000" cont="0"/>