<configuration>
    <input>
        <net-file value="C:/Users/647va/.vscode/traffic_optimization/traffic_optimization-1/traffic_optimization/NETWORKS/simple_network.net.xml"/>
        <route-files value="C:/Users/647va/.vscode/traffic_optimization/traffic_optimization-1/traffic_optimization/simple_network.xml"/>
    </input>
    <time>
        <begin value="0"/>
        <end value="2000"/>
    </time>
</configuration>