<?xml version="1.0" encoding="UTF-8"?>

<!-- generated on 2025-10-19 17:09:41 by Eclipse SUMO netedit Version 1.19.0
<configuration xmlns:xsi="http://www.w3.org/2001/XMLSchema-instance" xsi:noNamespaceSchemaLocation="http://sumo.dlr.de/xsd/neteditConfiguration.xsd">

    <input>
        <sumo-net-file value="C:\Users\Lucas\Lucas\traffic_optimization\traffic_optimization\NETWORKS\Hwy7_404_network\Hwy7_404.west.net.xml"/>
    </input>

    <output>
        <output-file value="C:\Users\Lucas\Lucas\traffic_optimization\traffic_optimization\NETWORKS\Hwy7_404_network\Hwy7_404.west.net.xml"/>
    </output>

    <processing>
        <geometry.min-radius.fix.railways value="false"/>
        <geometry.max-grade.fix value="false"/>
        <offset.disable-normalization value="true"/>
        <lefthand value="0"/>
    </processing>

    <junctions>
        <no-turnarounds value="true"/>
        <junctions.corner-detail value="5"/>
        <junctions.limit-turn-speed value="5.50"/>
        <rectangular-lane-cut value="0"/>
    </junctions>

    <pedestrian>
        <walkingareas value="0"/>
    </pedestrian>

</configuration>
-->

<net version="1.16" junctionCornerDetail="5" limitTurnSpeed="5.50" xmlns:xsi="http://www.w3.org/2001/XMLSchema-instance" xsi:noNamespaceSchemaLocation="http://sumo.dlr.de/xsd/net_file.xsd">

    <location netOffset="0.00,0.00" convBoundary="-4096.23,-2406.37,-154.95,2363.94" origBoundary="-10000000000.00,-10000000000.00,10000000000.00,10000000000.00" projParameter="!"/>

    <edge id=":J0_0" function="internal">
        <lane id=":J0_0_0" index="0" speed="13.89" length="27.16" shape="-3911.15,-2196.60 -3904.16,-2192.98 -3898.81,-2191.83 -3893.10,-2191.66 -3885.03,-2190.96"/>
        <lane id=":J0_0_1" index="1" speed="13.89" length="27.49" shape="-3911.15,-2196.60 -3904.19,-2192.44 -3899.05,-2190.22 -3893.55,-2188.99 -3885.49,-2187.79"/>
        <lane id=":J0_0_2" index="2" speed="13.89" length="28.83" shape="-3912.86,-2193.89 -3905.56,-2189.53 -3900.18,-2187.19 -3894.41,-2185.88 -3885.96,-2184.63"/>
    </edge>
    <edge id=":J0_3" function="internal">
        <lane id=":J0_3_0" index="0" speed="13.89" length="29.11" shape="-3912.86,-2193.89 -3887.47,-2180.26"/>
        <lane id=":J0_3_1" index="1" speed="13.89" length="29.11" shape="-3914.57,-2191.19 -3889.06,-2177.48"/>
        <lane id=":J0_3_2" index="2" speed="13.89" length="29.11" shape="-3916.28,-2188.48 -3890.64,-2174.70"/>
        <lane id=":J0_3_3" index="3" speed="13.89" length="29.11" shape="-3917.99,-2185.78 -3892.22,-2171.92"/>
        <lane id=":J0_3_4" index="4" speed="13.89" length="29.11" shape="-3919.70,-2183.07 -3893.81,-2169.14"/>
    </edge>
    <edge id=":J1_0" function="internal">
        <lane id=":J1_0_0" index="0" speed="13.89" length="15.72" shape="-3017.75,492.99 -3032.79,488.40"/>
        <lane id=":J1_0_1" index="1" speed="13.89" length="15.72" shape="-3016.82,489.93 -3031.85,485.34"/>
    </edge>
    <edge id=":J1_2" function="internal">
        <lane id=":J1_2_0" index="0" speed="10.17" length="8.07" shape="-3015.89,486.87 -3019.70,484.51 -3021.23,481.26"/>
    </edge>
    <edge id=":J1_13" function="internal">
        <lane id=":J1_13_0" index="0" speed="10.17" length="15.25" shape="-3021.23,481.26 -3021.69,480.29 -3021.86,474.22 -3020.20,466.29"/>
    </edge>
    <edge id=":J1_3" function="internal">
        <lane id=":J1_3_0" index="0" speed="7.64" length="12.73" shape="-3017.13,467.18 -3017.80,471.04 -3017.36,474.07 -3015.79,476.29 -3013.10,477.69"/>
    </edge>
    <edge id=":J1_4" function="internal">
        <lane id=":J1_4_0" index="0" speed="13.89" length="33.18" shape="-3017.13,467.18 -3018.79,473.56 -3021.15,483.28 -3023.42,493.02 -3024.81,499.46"/>
    </edge>
    <edge id=":J1_5" function="internal">
        <lane id=":J1_5_0" index="0" speed="10.51" length="25.56" shape="-3017.13,467.18 -3020.31,476.13 -3023.82,482.14 -3027.67,485.21 -3031.85,485.34"/>
    </edge>
    <edge id=":J1_6" function="internal">
        <lane id=":J1_6_0" index="0" speed="6.47" length="9.03" shape="-3027.15,470.05 -3024.70,470.43 -3022.72,469.93 -3021.22,468.56 -3020.20,466.29"/>
    </edge>
    <edge id=":J1_7" function="internal">
        <lane id=":J1_7_0" index="0" speed="13.89" length="15.68" shape="-3028.09,473.10 -3013.10,477.69"/>
        <lane id=":J1_7_1" index="1" speed="13.89" length="15.68" shape="-3029.03,476.16 -3014.03,480.75"/>
    </edge>
    <edge id=":J1_9" function="internal">
        <lane id=":J1_9_0" index="0" speed="10.43" length="7.84" shape="-3029.97,479.22 -3026.48,481.46 -3024.85,484.78"/>
    </edge>
    <edge id=":J1_14" function="internal">
        <lane id=":J1_14_0" index="0" speed="10.43" length="14.85" shape="-3024.85,484.78 -3024.45,485.58 -3023.90,491.58 -3024.81,499.46"/>
    </edge>
    <edge id=":J1_10" function="internal">
        <lane id=":J1_10_0" index="0" speed="7.95" length="12.80" shape="-3027.96,498.87 -3027.67,495.03 -3028.37,492.00 -3030.08,489.79 -3032.79,488.40"/>
    </edge>
    <edge id=":J1_11" function="internal">
        <lane id=":J1_11_0" index="0" speed="13.89" length="33.49" shape="-3027.96,498.87 -3026.56,492.38 -3024.26,482.54 -3021.87,472.72 -3020.20,466.29"/>
    </edge>
    <edge id=":J1_12" function="internal">
        <lane id=":J1_12_0" index="0" speed="10.26" length="26.00" shape="-3027.96,498.87 -3025.97,490.42 -3023.24,484.18 -3019.38,480.76 -3014.03,480.75"/>
    </edge>
    <edge id=":J101_0" function="internal">
        <lane id=":J101_0_0" index="0" speed="8.55" length="13.71" shape="-826.00,-1459.21 -828.53,-1459.00 -830.90,-1457.45 -833.12,-1454.56 -835.18,-1450.33"/>
    </edge>
    <edge id=":J101_1" function="internal">
        <lane id=":J101_1_0" index="0" speed="13.89" length="21.38" shape="-826.00,-1459.21 -830.08,-1459.46 -834.98,-1459.36 -840.75,-1459.59 -847.48,-1460.86"/>
        <lane id=":J101_1_1" index="1" speed="13.89" length="21.38" shape="-826.00,-1459.21 -829.95,-1459.94 -834.55,-1460.90 -840.03,-1462.20 -846.62,-1463.95"/>
    </edge>
    <edge id=":J101_3" function="internal">
        <lane id=":J101_3_0" index="0" speed="13.89" length="20.83" shape="-845.75,-1467.06 -841.24,-1465.88 -835.65,-1464.54 -830.03,-1463.30 -825.46,-1462.41"/>
    </edge>
    <edge id=":J101_4" function="internal">
        <lane id=":J101_4_0" index="0" speed="9.10" length="20.25" shape="-845.75,-1467.06 -840.60,-1464.77 -837.61,-1461.42 -836.79,-1457.01 -838.14,-1451.54"/>
    </edge>
    <edge id=":J101_5" function="internal">
        <lane id=":J101_5_0" index="0" speed="6.27" length="9.04" shape="-844.07,-1453.94 -843.47,-1456.39 -843.84,-1458.36 -845.17,-1459.85 -847.48,-1460.86"/>
        <lane id=":J101_5_1" index="1" speed="7.81" length="14.64" shape="-841.11,-1452.74 -840.13,-1456.70 -840.73,-1459.89 -842.89,-1462.30 -846.62,-1463.95"/>
    </edge>
    <edge id=":J101_7" function="internal">
        <lane id=":J101_7_0" index="0" speed="10.28" length="20.12" shape="-841.11,-1452.74 -838.38,-1457.67 -834.86,-1460.93 -830.55,-1462.51 -825.46,-1462.41"/>
    </edge>
    <edge id=":J11_0" function="internal">
        <lane id=":J11_0_0" index="0" speed="7.72" length="13.90" shape="-2379.64,2051.43 -2384.58,2050.65 -2388.22,2050.91 -2390.58,2052.19 -2391.66,2054.51"/>
    </edge>
    <edge id=":J11_1" function="internal">
        <lane id=":J11_1_0" index="0" speed="13.89" length="33.49" shape="-2379.64,2051.43 -2387.97,2048.84 -2397.16,2045.25 -2405.43,2041.80 -2410.97,2039.65"/>
    </edge>
    <edge id=":J11_2" function="internal">
        <lane id=":J11_2_0" index="0" speed="11.35" length="28.34" shape="-2378.92,2048.31 -2386.48,2045.51 -2391.48,2041.19 -2393.92,2035.36 -2393.80,2028.01"/>
    </edge>
    <edge id=":J11_3" function="internal">
        <lane id=":J11_3_0" index="0" speed="8.76" length="16.50" shape="-2381.19,2030.19 -2381.89,2036.29 -2381.63,2040.82 -2380.40,2043.79 -2378.20,2045.19"/>
    </edge>
    <edge id=":J11_4" function="internal">
        <lane id=":J11_4_0" index="0" speed="13.89" length="26.00" shape="-2384.34,2029.65 -2386.21,2037.53 -2388.27,2043.16 -2390.19,2048.25 -2391.66,2054.51"/>
        <lane id=":J11_4_1" index="1" speed="13.89" length="26.00" shape="-2387.49,2029.10 -2389.36,2037.01 -2391.43,2042.66 -2393.36,2047.76 -2394.82,2054.03"/>
    </edge>
    <edge id=":J11_6" function="internal">
        <lane id=":J11_6_0" index="0" speed="10.42" length="11.76" shape="-2390.65,2028.56 -2392.99,2035.44 -2396.17,2038.60"/>
    </edge>
    <edge id=":J11_15" function="internal">
        <lane id=":J11_15_0" index="0" speed="10.42" length="15.48" shape="-2396.17,2038.60 -2397.16,2039.59 -2403.15,2040.99 -2410.97,2039.65"/>
    </edge>
    <edge id=":J11_7" function="internal">
        <lane id=":J11_7_0" index="0" speed="6.61" length="10.27" shape="-2408.12,2030.48 -2404.99,2031.07 -2402.61,2030.68 -2400.98,2029.30 -2400.11,2026.92"/>
        <lane id=":J11_7_1" index="1" speed="8.08" length="15.92" shape="-2409.07,2033.54 -2404.37,2034.38 -2400.79,2033.65 -2398.32,2031.34 -2396.95,2027.47"/>
    </edge>
    <edge id=":J11_9" function="internal">
        <lane id=":J11_9_0" index="0" speed="13.89" length="33.00" shape="-2409.07,2033.54 -2378.20,2045.19"/>
    </edge>
    <edge id=":J11_10" function="internal">
        <lane id=":J11_10_0" index="0" speed="11.18" length="25.41" shape="-2410.02,2036.59 -2402.68,2039.66 -2397.70,2043.60 -2395.08,2048.38 -2394.82,2054.03"/>
    </edge>
    <edge id=":J11_11" function="internal">
        <lane id=":J11_11_0" index="0" speed="8.42" length="13.99" shape="-2407.48,2052.11 -2407.08,2047.26 -2407.53,2043.56 -2408.82,2041.03 -2410.97,2039.65"/>
    </edge>
    <edge id=":J11_12" function="internal">
        <lane id=":J11_12_0" index="0" speed="13.89" length="25.98" shape="-2404.31,2052.59 -2400.11,2026.92"/>
        <lane id=":J11_12_1" index="1" speed="13.89" length="25.98" shape="-2401.15,2053.07 -2396.95,2027.47"/>
    </edge>
    <edge id=":J11_14" function="internal">
        <lane id=":J11_14_0" index="0" speed="10.11" length="5.34" shape="-2397.99,2053.55 -2396.12,2048.55"/>
    </edge>
    <edge id=":J11_16" function="internal">
        <lane id=":J11_16_0" index="0" speed="10.11" length="19.31" shape="-2396.12,2048.55 -2396.04,2048.34 -2392.09,2045.21 -2386.14,2044.16 -2378.20,2045.19"/>
    </edge>
    <edge id=":J12_0" function="internal">
        <lane id=":J12_0_0" index="0" speed="6.16" length="9.05" shape="-2162.79,761.73 -2165.29,761.24 -2167.21,761.72 -2168.56,763.17 -2169.33,765.60"/>
    </edge>
    <edge id=":J12_1" function="internal">
        <lane id=":J12_1_0" index="0" speed="13.89" length="34.44" shape="-2162.79,761.73 -2195.31,750.92"/>
        <lane id=":J12_1_1" index="1" speed="13.89" length="34.44" shape="-2161.74,758.71 -2194.35,747.87"/>
        <lane id=":J12_1_2" index="2" speed="13.89" length="34.44" shape="-2160.68,755.69 -2193.39,744.81"/>
        <lane id=":J12_1_3" index="3" speed="13.89" length="34.44" shape="-2160.68,755.69 -2192.42,741.76"/>
    </edge>
    <edge id=":J12_5" function="internal">
        <lane id=":J12_5_0" index="0" speed="12.50" length="4.37" shape="-2159.63,752.67 -2163.47,750.59"/>
    </edge>
    <edge id=":J12_22" function="internal">
        <lane id=":J12_22_0" index="0" speed="12.50" length="27.11" shape="-2163.47,750.59 -2166.56,748.91 -2171.03,743.42 -2173.03,736.18 -2172.56,727.20"/>
    </edge>
    <edge id=":J12_6" function="internal">
        <lane id=":J12_6_0" index="0" speed="8.25" length="13.23" shape="-2159.95,729.37 -2160.25,733.45 -2159.59,736.68 -2157.97,739.04 -2155.39,740.53"/>
    </edge>
    <edge id=":J12_7" function="internal">
        <lane id=":J12_7_0" index="0" speed="13.89" length="37.31" shape="-2163.10,728.83 -2169.33,765.60"/>
        <lane id=":J12_7_1" index="1" speed="13.89" length="37.31" shape="-2166.26,728.28 -2172.48,765.07"/>
        <lane id=":J12_7_2" index="2" speed="13.89" length="37.31" shape="-2169.41,727.74 -2175.64,764.55"/>
    </edge>
    <edge id=":J12_10" function="internal">
        <lane id=":J12_10_0" index="0" speed="11.33" length="9.43" shape="-2169.41,727.74 -2172.07,736.79"/>
    </edge>
    <edge id=":J12_23" function="internal">
        <lane id=":J12_23_0" index="0" speed="11.33" length="23.09" shape="-2172.07,736.79 -2176.52,741.97 -2183.16,743.54 -2192.42,741.76"/>
    </edge>
    <edge id=":J12_11" function="internal">
        <lane id=":J12_11_0" index="0" speed="6.24" length="9.05" shape="-2188.58,729.55 -2186.08,729.96 -2184.16,729.43 -2182.80,727.97 -2182.02,725.56"/>
    </edge>
    <edge id=":J12_12" function="internal">
        <lane id=":J12_12_0" index="0" speed="13.89" length="34.81" shape="-2188.58,729.55 -2155.39,740.53"/>
        <lane id=":J12_12_1" index="1" speed="13.89" length="34.81" shape="-2189.54,732.61 -2156.44,743.56"/>
        <lane id=":J12_12_2" index="2" speed="13.89" length="34.81" shape="-2190.50,735.66 -2157.50,746.58"/>
        <lane id=":J12_12_3" index="3" speed="13.89" length="34.81" shape="-2191.46,738.71 -2158.55,749.60"/>
    </edge>
    <edge id=":J12_16" function="internal">
        <lane id=":J12_16_0" index="0" speed="12.75" length="9.95" shape="-2191.46,738.71 -2183.31,742.58 -2182.67,743.25"/>
    </edge>
    <edge id=":J12_24" function="internal">
        <lane id=":J12_24_0" index="0" speed="12.75" length="23.63" shape="-2182.67,743.25 -2177.95,748.18 -2175.40,755.50 -2175.64,764.55"/>
    </edge>
    <edge id=":J12_17" function="internal">
        <lane id=":J12_17_0" index="0" speed="8.66" length="14.98" shape="-2188.27,762.45 -2188.16,758.41 -2189.29,755.14 -2191.68,752.64 -2195.31,750.92"/>
    </edge>
    <edge id=":J12_18" function="internal">
        <lane id=":J12_18_0" index="0" speed="13.89" length="37.44" shape="-2185.11,762.98 -2178.87,726.11"/>
        <lane id=":J12_18_1" index="1" speed="13.89" length="37.44" shape="-2181.95,763.50 -2175.72,726.65"/>
        <lane id=":J12_18_2" index="2" speed="13.89" length="37.44" shape="-2181.95,763.50 -2179.64,752.62 -2177.31,745.34 -2174.95,738.06 -2172.56,727.20"/>
    </edge>
    <edge id=":J12_21" function="internal">
        <lane id=":J12_21_0" index="0" speed="10.79" length="7.78" shape="-2178.80,764.02 -2176.81,756.50"/>
    </edge>
    <edge id=":J12_25" function="internal">
        <lane id=":J12_25_0" index="0" speed="10.79" length="22.39" shape="-2176.81,756.50 -2176.51,755.38 -2172.72,749.99 -2166.90,748.01 -2158.55,749.60"/>
    </edge>
    <edge id=":J121_0" function="internal">
        <lane id=":J121_0_0" index="0" speed="6.21" length="9.05" shape="-602.13,-1454.71 -602.56,-1457.21 -603.69,-1458.85 -605.52,-1459.62 -608.05,-1459.54"/>
    </edge>
    <edge id=":J121_1" function="internal">
        <lane id=":J121_1_0" index="0" speed="9.73" length="23.84" shape="-608.63,-1462.73 -600.30,-1463.50 -594.30,-1462.47 -590.65,-1459.66 -589.33,-1455.07"/>
        <lane id=":J121_1_1" index="1" speed="9.11" length="20.76" shape="-608.63,-1462.73 -601.69,-1463.28 -596.70,-1462.17 -593.64,-1459.40 -592.52,-1454.98"/>
        <lane id=":J121_1_2" index="2" speed="8.46" length="17.75" shape="-608.63,-1462.73 -603.09,-1463.07 -599.09,-1461.87 -596.63,-1459.15 -595.72,-1454.89"/>
    </edge>
    <edge id=":J127_0" function="internal">
        <lane id=":J127_0_0" index="0" speed="12.85" length="33.90" shape="-161.91,-954.27 -156.25,-950.65 -152.87,-944.48 -151.76,-935.75 -152.93,-924.47"/>
        <lane id=":J127_0_1" index="1" speed="11.99" length="29.35" shape="-162.95,-951.25 -158.40,-948.19 -155.74,-942.80 -154.96,-935.09 -156.08,-925.05"/>
    </edge>
    <edge id=":J127_2" function="internal">
        <lane id=":J127_2_0" index="0" speed="6.54" length="8.08" shape="-165.52,-926.79 -165.42,-928.96 -166.01,-930.73 -167.27,-932.11 -169.20,-933.09"/>
        <lane id=":J127_2_1" index="1" speed="8.04" length="12.70" shape="-162.37,-926.21 -162.22,-929.62 -163.14,-932.41 -165.12,-934.58 -168.16,-936.12"/>
        <lane id=":J127_2_2" index="2" speed="9.30" length="17.32" shape="-159.23,-925.63 -159.02,-930.28 -160.27,-934.09 -162.97,-937.04 -167.12,-939.15"/>
        <lane id=":J127_2_3" index="3" speed="9.89" length="19.71" shape="-159.23,-925.63 -158.73,-931.66 -159.71,-936.43 -162.16,-939.94 -166.08,-942.17"/>
    </edge>
    <edge id=":J13_0" function="internal">
        <lane id=":J13_0_0" index="0" speed="6.34" length="9.04" shape="-2432.93,-1387.59 -2435.43,-1387.55 -2437.26,-1386.70 -2438.41,-1385.04 -2438.88,-1382.58"/>
    </edge>
    <edge id=":J13_1" function="internal">
        <lane id=":J13_1_0" index="0" speed="13.89" length="26.42" shape="-2432.52,-1390.76 -2440.42,-1391.76 -2445.81,-1392.55 -2451.14,-1393.63 -2458.87,-1395.51"/>
        <lane id=":J13_1_1" index="1" speed="13.89" length="26.42" shape="-2432.12,-1393.94 -2439.90,-1394.92 -2445.22,-1395.70 -2450.48,-1396.76 -2458.09,-1398.61"/>
        <lane id=":J13_1_2" index="2" speed="13.89" length="26.42" shape="-2431.72,-1397.11 -2439.39,-1398.08 -2444.63,-1398.84 -2449.81,-1399.90 -2457.32,-1401.72"/>
    </edge>
    <edge id=":J13_4" function="internal">
        <lane id=":J13_4_0" index="0" speed="13.89" length="24.89" shape="-2454.21,-1414.13 -2447.14,-1412.42 -2442.26,-1411.44 -2437.33,-1410.72 -2430.11,-1409.82"/>
        <lane id=":J13_4_1" index="1" speed="13.89" length="24.89" shape="-2454.98,-1411.03 -2447.81,-1409.29 -2442.85,-1408.29 -2437.85,-1407.56 -2430.52,-1406.64"/>
        <lane id=":J13_4_2" index="2" speed="13.89" length="24.89" shape="-2455.76,-1407.93 -2448.48,-1406.16 -2443.44,-1405.14 -2438.36,-1404.40 -2430.92,-1403.47"/>
    </edge>
    <edge id=":J13_7" function="internal">
        <lane id=":J13_7_0" index="0" speed="12.15" length="4.39" shape="-2456.54,-1404.82 -2452.49,-1403.11"/>
        <lane id=":J13_7_1" index="1" speed="11.71" length="3.50" shape="-2456.54,-1404.82 -2453.38,-1403.32"/>
    </edge>
    <edge id=":J13_13" function="internal">
        <lane id=":J13_13_0" index="0" speed="12.15" length="24.54" shape="-2452.49,-1403.11 -2449.88,-1402.00 -2445.26,-1397.38 -2442.66,-1390.96 -2442.08,-1382.74"/>
    </edge>
    <edge id=":J13_14" function="internal">
        <lane id=":J13_14_0" index="0" speed="11.71" length="23.35" shape="-2453.38,-1403.32 -2451.27,-1402.31 -2447.64,-1397.82 -2445.64,-1391.34 -2445.28,-1382.89"/>
    </edge>
    <edge id=":J13_9" function="internal">
        <lane id=":J13_9_0" index="0" speed="7.72" length="11.16" shape="-2454.87,-1383.35 -2455.03,-1386.83 -2455.88,-1389.50 -2457.42,-1391.36 -2459.65,-1392.40"/>
        <lane id=":J13_9_1" index="1" speed="8.48" length="13.65" shape="-2454.87,-1383.35 -2454.92,-1388.25 -2455.60,-1391.90 -2456.92,-1394.32 -2458.87,-1395.51"/>
    </edge>
    <edge id=":J13_11" function="internal">
        <lane id=":J13_11_0" index="0" speed="11.74" length="33.64" shape="-2451.68,-1383.20 -2449.96,-1393.00 -2445.93,-1399.64 -2439.59,-1403.13 -2430.92,-1403.47"/>
        <lane id=":J13_11_1" index="1" speed="10.78" length="28.19" shape="-2448.48,-1383.05 -2447.06,-1391.36 -2443.72,-1397.01 -2438.48,-1399.98 -2431.32,-1400.29"/>
    </edge>
    <edge id=":J136_0" function="internal">
        <lane id=":J136_0_0" index="0" speed="8.02" length="14.37" shape="-3693.28,-1429.65 -3698.43,-1430.10 -3702.23,-1429.64 -3704.68,-1428.25 -3705.77,-1425.93"/>
        <lane id=":J136_0_1" index="1" speed="9.25" length="19.46" shape="-3692.79,-1432.81 -3699.36,-1433.29 -3704.24,-1432.38 -3707.43,-1430.08 -3708.93,-1426.41"/>
    </edge>
    <edge id=":J136_2" function="internal">
        <lane id=":J136_2_0" index="0" speed="13.89" length="36.81" shape="-3692.29,-1435.97 -3728.20,-1444.05"/>
    </edge>
    <edge id=":J136_3" function="internal">
        <lane id=":J136_3_0" index="0" speed="11.42" length="29.68" shape="-3691.79,-1439.13 -3700.94,-1441.52 -3707.16,-1445.35 -3710.47,-1450.61 -3710.85,-1457.31"/>
    </edge>
    <edge id=":J136_4" function="internal">
        <lane id=":J136_4_0" index="0" speed="6.53" length="9.03" shape="-3695.02,-1455.02 -3695.02,-1452.55 -3694.24,-1450.66 -3692.66,-1449.35 -3690.30,-1448.63"/>
    </edge>
    <edge id=":J136_5" function="internal">
        <lane id=":J136_5_0" index="0" speed="13.89" length="30.54" shape="-3698.18,-1455.48 -3699.98,-1446.58 -3701.97,-1440.61 -3703.96,-1434.69 -3705.77,-1425.93"/>
        <lane id=":J136_5_1" index="1" speed="13.89" length="30.54" shape="-3701.35,-1455.94 -3703.15,-1447.04 -3705.13,-1441.08 -3707.12,-1435.16 -3708.93,-1426.41"/>
        <lane id=":J136_5_2" index="2" speed="13.89" length="30.54" shape="-3704.52,-1456.39 -3706.31,-1447.51 -3708.30,-1441.54 -3710.29,-1435.63 -3712.10,-1426.88"/>
    </edge>
    <edge id=":J136_8" function="internal">
        <lane id=":J136_8_0" index="0" speed="11.06" length="5.99" shape="-3707.68,-1456.85 -3709.55,-1451.16"/>
    </edge>
    <edge id=":J136_20" function="internal">
        <lane id=":J136_20_0" index="0" speed="11.06" length="21.29" shape="-3709.55,-1451.16 -3709.77,-1450.50 -3713.88,-1446.25 -3720.03,-1444.10 -3728.20,-1444.05"/>
    </edge>
    <edge id=":J136_9" function="internal">
        <lane id=":J136_9_0" index="0" speed="7.57" length="12.27" shape="-3727.16,-1453.60 -3723.10,-1453.51 -3720.09,-1454.26 -3718.11,-1455.83 -3717.18,-1458.23"/>
    </edge>
    <edge id=":J136_10" function="internal">
        <lane id=":J136_10_0" index="0" speed="13.89" length="37.13" shape="-3727.16,-1453.60 -3690.30,-1448.63"/>
        <lane id=":J136_10_1" index="1" speed="13.89" length="37.13" shape="-3727.51,-1450.41 -3690.80,-1445.47"/>
        <lane id=":J136_10_2" index="2" speed="13.89" length="37.13" shape="-3727.51,-1450.41 -3717.64,-1448.79 -3709.37,-1446.62 -3701.11,-1444.33 -3691.29,-1442.31"/>
    </edge>
    <edge id=":J136_13" function="internal">
        <lane id=":J136_13_0" index="0" speed="12.12" length="34.94" shape="-3727.51,-1450.41 -3718.17,-1448.02 -3711.96,-1443.23 -3708.88,-1436.02 -3708.93,-1426.41"/>
        <lane id=":J136_13_1" index="1" speed="11.19" length="29.63" shape="-3727.85,-1447.23 -3719.93,-1445.21 -3714.67,-1441.14 -3712.06,-1435.03 -3712.10,-1426.88"/>
    </edge>
    <edge id=":J136_15" function="internal">
        <lane id=":J136_15_0" index="0" speed="8.60" length="17.05" shape="-3724.76,-1428.76 -3724.15,-1435.22 -3724.52,-1439.92 -3725.87,-1442.87 -3728.20,-1444.05"/>
    </edge>
    <edge id=":J136_16" function="internal">
        <lane id=":J136_16_0" index="0" speed="13.89" length="30.49" shape="-3724.76,-1428.76 -3722.93,-1437.63 -3720.94,-1443.57 -3718.96,-1449.48 -3717.18,-1458.23"/>
        <lane id=":J136_16_1" index="1" speed="13.89" length="30.49" shape="-3721.59,-1428.29 -3719.76,-1437.16 -3717.77,-1443.11 -3715.79,-1449.02 -3714.02,-1457.77"/>
        <lane id=":J136_16_2" index="2" speed="13.89" length="30.49" shape="-3718.43,-1427.82 -3716.60,-1436.69 -3714.60,-1442.65 -3712.63,-1448.56 -3710.85,-1457.31"/>
    </edge>
    <edge id=":J136_19" function="internal">
        <lane id=":J136_19_0" index="0" speed="11.79" length="6.45" shape="-3715.26,-1427.35 -3713.28,-1433.49"/>
    </edge>
    <edge id=":J136_21" function="internal">
        <lane id=":J136_21_0" index="0" speed="11.79" length="25.77" shape="-3713.28,-1433.49 -3712.74,-1435.14 -3707.91,-1440.23 -3700.76,-1442.62 -3691.29,-1442.31"/>
    </edge>
    <edge id=":J137_0" function="internal">
        <lane id=":J137_0_0" index="0" speed="13.89" length="8.93" shape="-3674.49,-1641.94 -3673.84,-1639.01 -3671.84,-1637.30 -3669.86,-1635.60 -3669.27,-1632.67"/>
        <lane id=":J137_0_1" index="1" speed="13.89" length="8.93" shape="-3674.49,-1641.94 -3674.31,-1639.30 -3673.43,-1637.53 -3672.56,-1635.76 -3672.44,-1633.13"/>
        <lane id=":J137_0_2" index="2" speed="13.89" length="8.93" shape="-3677.72,-1641.84 -3677.53,-1639.36 -3676.64,-1637.71 -3675.75,-1636.06 -3675.60,-1633.59"/>
        <lane id=":J137_0_3" index="3" speed="13.89" length="8.93" shape="-3680.96,-1641.73 -3680.75,-1639.41 -3679.84,-1637.88 -3678.94,-1636.36 -3678.77,-1634.05"/>
        <lane id=":J137_0_4" index="4" speed="13.89" length="8.93" shape="-3680.96,-1641.73 -3681.94,-1634.50"/>
    </edge>
    <edge id=":J137_5" function="internal">
        <lane id=":J137_5_0" index="0" speed="13.89" length="8.81" shape="-3691.44,-1635.88 -3684.75,-1641.60"/>
    </edge>
    <edge id=":J137_6" function="internal">
        <lane id=":J137_6_0" index="0" speed="13.89" length="6.15" shape="-3691.44,-1635.88 -3690.68,-1641.41"/>
        <lane id=":J137_6_1" index="1" speed="13.89" length="6.15" shape="-3688.27,-1635.42 -3687.44,-1641.51"/>
        <lane id=":J137_6_2" index="2" speed="13.89" length="6.15" shape="-3685.11,-1634.96 -3684.20,-1641.62"/>
    </edge>
    <edge id=":J138_0" function="internal">
        <lane id=":J138_0_0" index="0" speed="6.50" length="9.03" shape="-3653.86,-1760.90 -3656.33,-1760.87 -3658.20,-1760.06 -3659.46,-1758.45 -3660.12,-1756.06"/>
    </edge>
    <edge id=":J138_1" function="internal">
        <lane id=":J138_1_0" index="0" speed="9.91" length="22.69" shape="-3653.44,-1764.08 -3661.40,-1765.69 -3666.89,-1768.12 -3669.91,-1771.38 -3670.47,-1775.47"/>
        <lane id=":J138_1_1" index="1" speed="8.79" length="17.63" shape="-3653.03,-1767.25 -3659.60,-1768.47 -3664.17,-1770.17 -3666.74,-1772.34 -3667.30,-1774.99"/>
    </edge>
    <edge id=":J138_3" function="internal">
        <lane id=":J138_3_0" index="0" speed="13.89" length="17.72" shape="-3657.81,-1773.55 -3660.12,-1756.06"/>
        <lane id=":J138_3_1" index="1" speed="13.89" length="17.72" shape="-3660.98,-1774.03 -3663.29,-1756.46"/>
        <lane id=":J138_3_2" index="2" speed="13.89" length="17.72" shape="-3664.14,-1774.51 -3666.47,-1756.86"/>
    </edge>
    <edge id=":J138_6" function="internal">
        <lane id=":J138_6_0" index="0" speed="13.89" length="17.96" shape="-3675.99,-1758.06 -3673.63,-1775.95"/>
        <lane id=":J138_6_1" index="1" speed="13.89" length="17.96" shape="-3672.82,-1757.66 -3670.47,-1775.47"/>
        <lane id=":J138_6_2" index="2" speed="13.89" length="17.96" shape="-3669.64,-1757.26 -3667.30,-1774.99"/>
    </edge>
    <edge id=":J139_0" function="internal">
        <lane id=":J139_0_0" index="0" speed="13.89" length="15.84" shape="-3631.62,-1936.78 -3632.00,-1931.70 -3631.97,-1927.80 -3631.73,-1924.44 -3631.49,-1920.97"/>
    </edge>
    <edge id=":J139_1" function="internal">
        <lane id=":J139_1_0" index="0" speed="13.89" length="15.98" shape="-3631.62,-1936.78 -3632.42,-1932.09 -3633.42,-1928.96 -3634.48,-1925.84 -3635.47,-1921.17"/>
        <lane id=":J139_1_1" index="1" speed="13.89" length="15.98" shape="-3634.80,-1937.13 -3635.60,-1932.48 -3636.59,-1929.37 -3637.65,-1926.28 -3638.63,-1921.65"/>
        <lane id=":J139_1_2" index="2" speed="13.89" length="15.98" shape="-3637.99,-1937.48 -3638.78,-1932.86 -3639.77,-1929.79 -3640.82,-1926.72 -3641.79,-1922.13"/>
    </edge>
    <edge id=":J139_4" function="internal">
        <lane id=":J139_4_0" index="0" speed="13.89" length="15.53" shape="-3651.28,-1923.57 -3650.83,-1928.08 -3650.88,-1931.20 -3650.99,-1934.33 -3650.71,-1938.87"/>
        <lane id=":J139_4_1" index="1" speed="13.89" length="15.53" shape="-3648.12,-1923.09 -3647.66,-1927.64 -3647.71,-1930.79 -3647.81,-1933.95 -3647.53,-1938.52"/>
        <lane id=":J139_4_2" index="2" speed="13.89" length="15.53" shape="-3644.96,-1922.61 -3644.49,-1927.20 -3644.53,-1930.38 -3644.64,-1933.56 -3644.35,-1938.17"/>
        <lane id=":J139_4_3" index="3" speed="13.89" length="15.53" shape="-3644.96,-1922.61 -3643.99,-1927.16 -3642.94,-1930.20 -3641.95,-1933.25 -3641.17,-1937.83"/>
    </edge>
    <edge id=":J139_8" function="internal">
        <lane id=":J139_8_0" index="0" speed="6.58" length="2.13" shape="-3644.96,-1922.61 -3643.81,-1924.40"/>
    </edge>
    <edge id=":J139_9" function="internal">
        <lane id=":J139_9_0" index="0" speed="6.58" length="16.84" shape="-3643.81,-1924.40 -3642.43,-1926.56 -3637.94,-1927.41 -3633.59,-1925.45 -3631.49,-1920.97"/>
    </edge>
    <edge id=":J14_0" function="internal">
        <lane id=":J14_0_0" index="0" speed="6.38" length="9.49" shape="-1961.75,-387.99 -1964.25,-388.34 -1966.19,-387.69 -1967.57,-386.05 -1968.39,-383.40"/>
    </edge>
    <edge id=":J14_1" function="internal">
        <lane id=":J14_1_0" index="0" speed="13.89" length="33.70" shape="-1961.75,-387.99 -1994.08,-397.02"/>
        <lane id=":J14_1_1" index="1" speed="13.89" length="33.70" shape="-1961.75,-387.99 -1993.31,-400.13"/>
    </edge>
    <edge id=":J14_3" function="internal">
        <lane id=":J14_3_0" index="0" speed="11.85" length="9.45" shape="-1960.81,-391.05 -1968.65,-394.47 -1969.31,-395.07"/>
    </edge>
    <edge id=":J14_15" function="internal">
        <lane id=":J14_15_0" index="0" speed="11.85" length="19.72" shape="-1969.31,-395.07 -1973.87,-399.14 -1976.47,-405.05 -1976.46,-412.20"/>
    </edge>
    <edge id=":J14_4" function="internal">
        <lane id=":J14_4_0" index="0" speed="8.67" length="15.17" shape="-1963.84,-410.06 -1964.23,-405.20 -1963.54,-401.42 -1961.77,-398.75 -1958.93,-397.17"/>
    </edge>
    <edge id=":J14_5" function="internal">
        <lane id=":J14_5_0" index="0" speed="13.89" length="27.04" shape="-1967.00,-410.60 -1971.54,-383.94"/>
        <lane id=":J14_5_1" index="1" speed="13.89" length="27.04" shape="-1970.15,-411.13 -1974.70,-384.48"/>
    </edge>
    <edge id=":J14_7" function="internal">
        <lane id=":J14_7_0" index="0" speed="10.52" length="6.91" shape="-1973.31,-411.67 -1975.53,-405.12"/>
    </edge>
    <edge id=":J14_16" function="internal">
        <lane id=":J14_16_0" index="0" speed="10.52" length="19.88" shape="-1975.53,-405.12 -1975.57,-405.00 -1979.65,-400.85 -1985.57,-399.22 -1993.31,-400.13"/>
    </edge>
    <edge id=":J14_8" function="internal">