<?xml version="1.0" encoding="UTF-8"?>

<!-- generated on 2025-10-19 20:30:45 by Eclipse SUMO netedit Version 1.19.0
<configuration xmlns:xsi="http://www.w3.org/2001/XMLSchema-instance" xsi:noNamespaceSchemaLocation="http://sumo.dlr.de/xsd/neteditConfiguration.xsd">

    <input>
        <sumo-net-file value="C:\Users\Lucas\Lucas\traffic_optimization\traffic_optimization\NETWORKS\Hwy7_404_network\Hwy7_404.east.net.xml"/>
    </input>

    <output>
        <output-file value="C:\Users\Lucas\Lucas\traffic_optimization\traffic_optimization\NETWORKS\Hwy7_404_network\Hwy7_404.east.net.xml"/>
    </output>

    <processing>
        <geometry.min-radius.fix.railways value="false"/>
        <geometry.max-grade.fix value="false"/>
        <offset.disable-normalization value="true"/>
        <lefthand value="0"/>
    </processing>

    <junctions>
        <no-turnarounds value="true"/>
        <junctions.corner-detail value="5"/>
        <junctions.limit-turn-speed value="5.50"/>
        <rectangular-lane-cut value="0"/>
    </junctions>

    <pedestrian>
        <walkingareas value="0"/>
    </pedestrian>

</configuration>
-->

<net version="1.16" junctionCornerDetail="5" limitTurnSpeed="5.50" xmlns:xsi="http://www.w3.org/2001/XMLSchema-instance" xsi:noNamespaceSchemaLocation="http://sumo.dlr.de/xsd/net_file.xsd">

    <location netOffset="0.00,0.00" convBoundary="-721.48,-2075.97,799.31,2372.94" origBoundary="-10000000000.00,-10000000000.00,10000000000.00,10000000000.00" projParameter="!"/>

    <edge id=":J109_0" function="internal">
        <lane id=":J109_0_0" index="0" speed="7.09" length="11.97" shape="32.64,162.20 28.81,161.38 25.90,161.67 23.93,163.06 22.90,165.57"/>
        <lane id=":J109_0_1" index="1" speed="7.87" length="15.01" shape="32.64,162.20 27.46,160.97 23.58,161.03 21.01,162.37 19.75,164.98"/>
    </edge>
    <edge id=":J109_2" function="internal">
        <lane id=":J109_2_0" index="0" speed="13.89" length="34.78" shape="32.64,162.20 -0.68,152.70"/>
        <lane id=":J109_2_1" index="1" speed="13.89" length="34.78" shape="32.64,162.20 0.10,149.60"/>
    </edge>
    <edge id=":J109_4" function="internal">
        <lane id=":J109_4_0" index="0" speed="12.39" length="15.12" shape="33.62,159.15 23.09,155.02 19.88,152.96"/>
        <lane id=":J109_4_1" index="1" speed="11.88" length="12.15" shape="33.62,159.15 24.44,155.42 22.61,154.13"/>
    </edge>
    <edge id=":J109_24" function="internal">
        <lane id=":J109_24_0" index="0" speed="12.39" length="16.81" shape="19.88,152.96 15.87,150.40 11.96,145.29 11.36,139.70"/>
    </edge>
    <edge id=":J109_25" function="internal">
        <lane id=":J109_25_0" index="0" speed="11.88" length="17.15" shape="22.61,154.13 18.20,151.03 14.89,145.98 14.51,140.27"/>
    </edge>
    <edge id=":J109_6" function="internal">
        <lane id=":J109_6_0" index="0" speed="7.92" length="12.51" shape="30.26,143.11 30.06,146.66 30.88,149.50 32.71,151.63 35.56,153.05"/>
        <lane id=":J109_6_1" index="1" speed="8.63" length="15.00" shape="30.26,143.11 29.79,148.04 30.35,151.85 31.95,154.53 34.59,156.10"/>
    </edge>
    <edge id=":J109_8" function="internal">
        <lane id=":J109_8_0" index="0" speed="13.89" length="23.40" shape="27.11,142.54 22.90,165.57"/>
        <lane id=":J109_8_1" index="1" speed="13.89" length="23.40" shape="23.96,141.97 19.75,164.98"/>
    </edge>
    <edge id=":J109_10" function="internal">
        <lane id=":J109_10_0" index="0" speed="10.80" length="11.55" shape="20.81,141.40 18.39,148.10 15.15,151.13"/>
        <lane id=":J109_10_1" index="1" speed="10.31" length="9.61" shape="20.81,141.40 18.65,146.72 15.55,149.05"/>
    </edge>
    <edge id=":J109_26" function="internal">
        <lane id=":J109_26_0" index="0" speed="10.80" length="16.50" shape="15.15,151.13 14.00,152.21 7.64,153.74 -0.68,152.70"/>
    </edge>
    <edge id=":J109_27" function="internal">
        <lane id=":J109_27_0" index="0" speed="10.31" length="15.88" shape="15.55,149.05 14.48,149.85 8.29,150.81 0.10,149.60"/>
    </edge>
    <edge id=":J109_12" function="internal">
        <lane id=":J109_12_0" index="0" speed="7.19" length="11.85" shape="1.66,143.36 5.51,143.95 8.41,143.54 10.36,142.12 11.36,139.70"/>
        <lane id=":J109_12_1" index="1" speed="7.97" length="14.80" shape="1.66,143.36 6.87,144.28 10.75,144.07 13.30,142.73 14.51,140.27"/>
    </edge>
    <edge id=":J109_14" function="internal">
        <lane id=":J109_14_0" index="0" speed="13.89" length="35.29" shape="1.66,143.36 35.56,153.05"/>
        <lane id=":J109_14_1" index="1" speed="13.89" length="35.29" shape="1.66,143.36 9.56,145.95 18.19,149.51 26.79,153.17 34.59,156.10"/>
    </edge>
    <edge id=":J109_16" function="internal">
        <lane id=":J109_16_0" index="0" speed="12.08" length="18.07" shape="0.88,146.46 11.41,149.97 17.38,153.58"/>
        <lane id=":J109_16_1" index="1" speed="11.57" length="14.41" shape="0.88,146.46 10.05,149.64 13.97,152.26"/>
    </edge>
    <edge id=":J109_28" function="internal">
        <lane id=":J109_28_0" index="0" speed="12.08" length="13.94" shape="17.38,153.58 18.59,154.32 22.42,159.52 22.90,165.57"/>
    </edge>
    <edge id=":J109_29" function="internal">
        <lane id=":J109_29_0" index="0" speed="11.57" length="14.89" shape="13.97,152.26 16.25,153.78 19.49,158.90 19.75,164.98"/>
    </edge>
    <edge id=":J109_18" function="internal">
        <lane id=":J109_18_0" index="0" speed="7.50" length="11.76" shape="4.02,162.07 4.27,158.55 3.57,155.81 1.92,153.86 -0.68,152.70"/>
        <lane id=":J109_18_1" index="1" speed="8.25" length="14.41" shape="4.02,162.07 4.54,157.17 4.06,153.46 2.58,150.94 0.10,149.60"/>
    </edge>
    <edge id=":J109_20" function="internal">
        <lane id=":J109_20_0" index="0" speed="13.89" length="23.34" shape="7.17,162.66 11.36,139.70"/>
        <lane id=":J109_20_1" index="1" speed="13.89" length="23.34" shape="10.31,163.24 14.51,140.27"/>
    </edge>
    <edge id=":J109_22" function="internal">
        <lane id=":J109_22_0" index="0" speed="10.72" length="11.66" shape="13.46,163.82 16.01,156.84 19.13,153.99"/>
        <lane id=":J109_22_1" index="1" speed="10.23" length="9.80" shape="13.46,163.82 15.73,158.22 18.75,155.99"/>
    </edge>
    <edge id=":J109_30" function="internal">
        <lane id=":J109_30_0" index="0" speed="10.72" length="17.19" shape="19.13,153.99 20.54,152.71 27.06,151.45 35.56,153.05"/>
    </edge>
    <edge id=":J109_31" function="internal">
        <lane id=":J109_31_0" index="0" speed="10.23" length="16.37" shape="18.75,155.99 20.01,155.06 26.29,154.36 34.59,156.10"/>
    </edge>
    <edge id=":J110_0" function="internal">
        <lane id=":J110_0_0" index="0" speed="6.23" length="9.05" shape="122.57,-336.13 120.08,-336.56 118.15,-336.06 116.79,-334.60 115.99,-332.20"/>
        <lane id=":J110_0_1" index="1" speed="7.07" length="11.99" shape="122.57,-336.13 118.73,-336.98 115.83,-336.70 113.86,-335.30 112.84,-332.77"/>
        <lane id=":J110_0_2" index="2" speed="7.85" length="15.06" shape="122.57,-336.13 117.38,-337.39 113.51,-337.35 110.94,-336.00 109.69,-333.34"/>
    </edge>
    <edge id=":J110_3" function="internal">
        <lane id=":J110_3_0" index="0" speed="11.58" length="27.49" shape="123.57,-339.17 114.35,-342.82 108.00,-346.77 104.52,-351.02 103.91,-355.57"/>
        <lane id=":J110_3_1" index="1" speed="11.03" length="24.85" shape="123.57,-339.17 115.70,-342.41 110.32,-346.13 107.44,-350.33 107.06,-355.02"/>
    </edge>
    <edge id=":J110_5" function="internal">
        <lane id=":J110_5_0" index="0" speed="7.37" length="10.57" shape="119.67,-352.80 119.68,-350.34 120.67,-348.26 122.64,-346.56 125.57,-345.25"/>
    </edge>
    <edge id=":J110_6" function="internal">
        <lane id=":J110_6_0" index="0" speed="13.89" length="20.90" shape="119.67,-352.80 115.99,-332.20"/>
        <lane id=":J110_6_1" index="1" speed="13.89" length="20.90" shape="116.51,-353.35 112.84,-332.77"/>
        <lane id=":J110_6_2" index="2" speed="13.89" length="20.90" shape="113.36,-353.91 109.69,-333.34"/>
        <lane id=":J110_6_3" index="3" speed="13.89" length="20.90" shape="110.21,-354.46 106.54,-333.91"/>
    </edge>
    <edge id=":J110_10" function="internal">
        <lane id=":J110_10_0" index="0" speed="13.89" length="20.85" shape="93.94,-336.18 97.61,-356.68"/>
        <lane id=":J110_10_1" index="1" speed="13.89" length="20.85" shape="97.09,-335.61 100.76,-356.13"/>
        <lane id=":J110_10_2" index="2" speed="13.89" length="20.85" shape="100.24,-335.04 103.91,-355.57"/>
        <lane id=":J110_10_3" index="3" speed="13.89" length="20.85" shape="103.39,-334.47 107.06,-355.02"/>
    </edge>
    <edge id=":J110_14" function="internal">
        <lane id=":J110_14_0" index="0" speed="10.22" length="3.58" shape="103.39,-334.47 104.71,-337.80"/>
    </edge>
    <edge id=":J110_15" function="internal">
        <lane id=":J110_15_0" index="0" speed="10.22" length="22.74" shape="104.71,-337.80 105.65,-340.16 109.94,-343.34 116.24,-344.02 124.57,-342.21"/>
    </edge>
    <edge id=":J114_0" function="internal">
        <lane id=":J114_0_0" index="0" speed="6.20" length="9.05" shape="206.29,-811.03 203.80,-811.49 201.87,-810.99 200.51,-809.54 199.72,-807.13"/>
        <lane id=":J114_0_1" index="1" speed="7.05" length="12.02" shape="206.29,-811.03 202.45,-811.91 199.55,-811.65 197.59,-810.24 196.57,-807.68"/>
        <lane id=":J114_0_2" index="2" speed="7.83" length="15.10" shape="206.29,-811.03 201.11,-812.33 197.23,-812.30 194.67,-810.94 193.42,-808.24"/>
    </edge>
    <edge id=":J114_3" function="internal">
        <lane id=":J114_3_0" index="0" speed="13.89" length="40.04" shape="207.32,-814.06 196.87,-819.01 189.95,-825.63 186.58,-833.92 186.73,-843.87"/>
        <lane id=":J114_3_1" index="1" speed="13.13" length="35.42" shape="208.34,-817.09 199.00,-821.49 192.81,-827.33 189.77,-834.60 189.88,-843.31"/>
        <lane id=":J114_3_2" index="2" speed="12.27" length="30.81" shape="209.36,-820.13 201.14,-823.97 195.67,-829.02 192.97,-835.28 193.03,-842.75"/>
    </edge>
    <edge id=":J114_6" function="internal">
        <lane id=":J114_6_0" index="0" speed="7.95" length="12.40" shape="205.63,-840.50 205.77,-838.00 207.12,-835.79 209.68,-833.88 213.45,-832.25"/>
        <lane id=":J114_6_1" index="1" speed="8.57" length="14.58" shape="205.63,-840.50 205.49,-836.62 206.58,-833.44 208.89,-830.98 212.43,-829.22"/>
        <lane id=":J114_6_2" index="2" speed="9.21" length="16.97" shape="205.63,-840.50 205.21,-835.23 206.04,-831.09 208.10,-828.08 211.41,-826.19"/>
    </edge>
    <edge id=":J114_9" function="internal">
        <lane id=":J114_9_0" index="0" speed="13.89" length="33.90" shape="205.63,-840.50 199.72,-807.13"/>
        <lane id=":J114_9_1" index="1" speed="13.89" length="33.90" shape="202.48,-841.07 196.57,-807.68"/>
        <lane id=":J114_9_2" index="2" speed="13.89" length="33.90" shape="199.33,-841.63 193.42,-808.24"/>
        <lane id=":J114_9_3" index="3" speed="13.89" length="33.90" shape="196.18,-842.19 190.27,-808.80"/>
    </edge>
    <edge id=":J114_13" function="internal">
        <lane id=":J114_13_0" index="0" speed="13.89" length="33.93" shape="177.66,-811.02 183.58,-844.44"/>
        <lane id=":J114_13_1" index="1" speed="13.89" length="33.93" shape="180.81,-810.46 186.73,-843.87"/>
        <lane id=":J114_13_2" index="2" speed="13.89" length="33.93" shape="183.96,-809.91 189.88,-843.31"/>
        <lane id=":J114_13_3" index="3" speed="13.89" length="33.93" shape="187.12,-809.35 193.03,-842.75"/>
    </edge>
    <edge id=":J114_17" function="internal">
        <lane id=":J114_17_0" index="0" speed="11.79" length="7.53" shape="187.12,-809.35 189.12,-816.61"/>
        <lane id=":J114_17_1" index="1" speed="11.30" length="6.04" shape="187.12,-809.35 188.86,-815.14"/>
    </edge>
    <edge id=":J114_19" function="internal">
        <lane id=":J114_19_0" index="0" speed="11.79" length="28.23" shape="189.12,-816.61 189.93,-819.54 194.50,-825.80 201.45,-828.05 211.41,-826.19"/>
    </edge>
    <edge id=":J114_20" function="internal">
        <lane id=":J114_20_0" index="0" speed="11.30" length="26.69" shape="188.86,-815.14 189.85,-818.43 194.39,-823.61 201.11,-825.11 210.38,-823.16"/>
    </edge>
    <edge id=":J118_0" function="internal">
        <lane id=":J118_0_0" index="0" speed="6.24" length="9.05" shape="-655.53,41.55 -658.03,41.16 -659.95,41.70 -661.30,43.17 -662.08,45.57"/>
        <lane id=":J118_0_1" index="1" speed="7.79" length="14.71" shape="-654.59,38.49 -658.65,37.85 -661.77,38.73 -663.97,41.13 -665.23,45.03"/>
        <lane id=":J118_0_2" index="2" speed="8.47" length="17.60" shape="-654.59,38.49 -660.00,37.46 -664.10,38.12 -666.90,40.47 -668.39,44.49"/>
    </edge>
    <edge id=":J118_3" function="internal">
        <lane id=":J118_3_0" index="0" speed="10.72" length="28.90" shape="-674.70,43.41 -672.24,36.38 -667.75,32.19 -661.24,30.85 -652.71,32.36"/>
        <lane id=":J118_3_1" index="1" speed="9.66" length="23.25" shape="-671.54,43.95 -669.57,38.42 -665.93,35.16 -660.62,34.16 -653.65,35.42"/>
    </edge>
    <edge id=":J120_0" function="internal">
        <lane id=":J120_0_0" index="0" speed="7.44" length="11.72" shape="123.29,718.50 120.84,718.47 118.74,719.65 116.98,722.05 115.57,725.67"/>
        <lane id=":J120_0_1" index="1" speed="8.77" length="16.68" shape="124.05,715.39 120.25,715.22 117.05,716.73 114.47,719.91 112.50,724.77"/>
    </edge>
    <edge id=":J120_2" function="internal">
        <lane id=":J120_2_0" index="0" speed="13.89" length="23.48" shape="124.05,715.39 117.87,714.40 112.92,714.25 107.68,713.87 100.66,712.13"/>
        <lane id=":J120_2_1" index="1" speed="13.89" length="23.48" shape="124.05,715.39 101.66,709.09"/>
    </edge>
    <edge id=":J120_4" function="internal">
        <lane id=":J120_4_0" index="0" speed="13.89" length="23.36" shape="104.66,699.98 111.14,702.58 115.54,705.02 119.73,707.22 125.57,709.16"/>
        <lane id=":J120_4_1" index="1" speed="13.89" length="23.36" shape="104.66,699.98 111.17,703.12 115.30,706.62 119.14,709.86 124.81,712.27"/>
    </edge>
    <edge id=":J120_6" function="internal">
        <lane id=":J120_6_0" index="0" speed="10.89" length="10.46" shape="103.66,703.02 109.42,706.09 111.73,709.27"/>
        <lane id=":J120_6_1" index="1" speed="9.85" length="3.23" shape="102.66,706.06 105.50,707.60"/>
    </edge>
    <edge id=":J120_11" function="internal">
        <lane id=":J120_11_0" index="0" speed="10.89" length="16.05" shape="111.73,709.27 112.81,710.74 113.83,716.96 112.50,724.77"/>
    </edge>
    <edge id=":J120_12" function="internal">
        <lane id=":J120_12_0" index="0" speed="9.85" length="18.25" shape="105.50,707.60 107.18,708.52 109.82,712.31 110.57,717.42 109.43,723.87"/>
    </edge>
    <edge id=":J120_8" function="internal">
        <lane id=":J120_8_0" index="0" speed="6.51" length="8.82" shape="103.28,722.07 103.63,719.69 103.14,717.74 101.82,716.24 99.66,715.17"/>
    </edge>
    <edge id=":J120_9" function="internal">
        <lane id=":J120_9_0" index="0" speed="11.45" length="29.09" shape="103.28,722.07 106.56,714.84 111.37,710.28 117.70,708.38 125.57,709.16"/>
        <lane id=":J120_9_1" index="1" speed="10.45" length="24.09" shape="106.35,722.97 109.07,716.98 113.05,713.20 118.30,711.63 124.81,712.27"/>
    </edge>
    <edge id=":J122_0" function="internal">
        <lane id=":J122_0_0" index="0" speed="13.89" length="14.84" shape="489.38,512.37 485.85,526.85"/>
        <lane id=":J122_0_1" index="1" speed="13.89" length="14.84" shape="486.26,511.67 482.76,526.02"/>
    </edge>
    <edge id=":J122_2" function="internal">
        <lane id=":J122_2_0" index="0" speed="8.52" length="4.04" shape="486.26,511.67 484.66,515.39"/>
    </edge>
    <edge id=":J122_8" function="internal">
        <lane id=":J122_8_0" index="0" speed="8.52" length="13.34" shape="484.66,515.39 484.61,515.52 481.73,517.72 477.63,518.28 472.30,517.19"/>
    </edge>
    <edge id=":J122_3" function="internal">
        <lane id=":J122_3_0" index="0" speed="6.31" length="9.04" shape="473.29,514.13 475.76,514.55 477.71,514.05 479.12,512.63 480.01,510.28"/>
    </edge>
    <edge id=":J122_4" function="internal">
        <lane id=":J122_4_0" index="0" speed="8.87" length="16.99" shape="473.29,514.13 478.25,516.29 481.48,518.99 482.98,522.23 482.76,526.02"/>
    </edge>
    <edge id=":J122_5" function="internal">
        <lane id=":J122_5_0" index="0" speed="6.74" length="9.41" shape="476.57,524.36 476.84,521.91 476.22,519.90 474.71,518.33 472.30,517.19"/>
    </edge>
    <edge id=":J122_6" function="internal">
        <lane id=":J122_6_0" index="0" speed="13.89" length="14.56" shape="476.57,524.36 480.01,510.28"/>
        <lane id=":J122_6_1" index="1" speed="13.89" length="14.56" shape="479.66,525.19 483.14,510.98"/>
    </edge>
    <edge id=":J123_0" function="internal">
        <lane id=":J123_0_0" index="0" speed="6.93" length="11.17" shape="172.10,203.39 169.59,203.13 167.54,204.10 165.95,206.32 164.82,209.79"/>
    </edge>
    <edge id=":J123_1" function="internal">
        <lane id=":J123_1_0" index="0" speed="13.89" length="14.36" shape="172.10,203.39 168.81,202.85 165.68,203.00 162.16,203.02 157.66,202.11"/>
        <lane id=":J123_1_1" index="1" speed="13.89" length="14.36" shape="172.10,203.39 158.64,199.06"/>
    </edge>
    <edge id=":J123_3" function="internal">
        <lane id=":J123_3_0" index="0" speed="13.89" length="14.60" shape="160.58,192.96 164.78,194.83 167.64,196.91 170.10,198.86 173.08,200.35"/>
    </edge>
    <edge id=":J123_4" function="internal">
        <lane id=":J123_4_0" index="0" speed="8.85" length="3.53" shape="159.61,196.01 162.70,197.73"/>
    </edge>
    <edge id=":J123_8" function="internal">
        <lane id=":J123_8_0" index="0" speed="8.85" length="12.82" shape="162.70,197.73 162.82,197.79 164.76,200.68 165.43,204.68 164.82,209.79"/>
    </edge>
    <edge id=":J123_5" function="internal">
        <lane id=":J123_5_0" index="0" speed="6.72" length="9.02" shape="161.69,209.10 161.88,206.66 161.27,204.69 159.87,203.17 157.66,202.11"/>
        <lane id=":J123_5_1" index="1" speed="7.53" length="11.56" shape="161.69,209.10 162.20,205.30 161.86,202.36 160.67,200.28 158.64,199.06"/>
    </edge>
    <edge id=":J123_7" function="internal">
        <lane id=":J123_7_0" index="0" speed="8.34" length="16.67" shape="161.69,209.10 163.36,204.20 165.82,201.10 169.06,199.82 173.08,200.35"/>
    </edge>
    <edge id=":J124_0" function="internal">
        <lane id=":J124_0_0" index="0" speed="13.89" length="14.88" shape="534.14,309.91 531.25,324.58"/>
        <lane id=":J124_0_1" index="1" speed="13.89" length="14.88" shape="530.99,309.35 528.12,323.88"/>
    </edge>
    <edge id=":J124_2" function="internal">
        <lane id=":J124_2_0" index="0" speed="8.45" length="4.16" shape="530.99,309.35 529.53,313.25"/>
    </edge>
    <edge id=":J124_8" function="internal">
        <lane id=":J124_8_0" index="0" speed="8.45" length="13.51" shape="529.53,313.25 529.47,313.40 526.66,315.73 522.54,316.34 517.13,315.24"/>
    </edge>
    <edge id=":J124_3" function="internal">
        <lane id=":J124_3_0" index="0" speed="6.23" length="9.05" shape="518.11,312.19 520.61,312.62 522.53,312.11 523.89,310.65 524.68,308.24"/>
    </edge>
    <edge id=":J124_4" function="internal">
        <lane id=":J124_4_0" index="0" speed="9.03" length="17.03" shape="518.11,312.19 523.15,314.35 526.50,317.02 528.16,320.20 528.12,323.88"/>
    </edge>
    <edge id=":J124_5" function="internal">
        <lane id=":J124_5_0" index="0" speed="6.94" length="9.68" shape="521.88,322.49 522.03,320.04 521.28,318.01 519.65,316.41 517.13,315.24"/>
    </edge>
    <edge id=":J124_6" function="internal">
        <lane id=":J124_6_0" index="0" speed="13.89" length="14.59" shape="521.88,322.49 524.68,308.24"/>
        <lane id=":J124_6_1" index="1" speed="13.89" length="14.59" shape="525.00,323.18 527.83,308.80"/>
    </edge>
    <edge id=":J125_0" function="internal">
        <lane id=":J125_0_0" index="0" speed="13.89" length="14.71" shape="576.55,67.94 574.19,82.50"/>
        <lane id=":J125_0_1" index="1" speed="13.89" length="14.71" shape="573.39,67.46 571.04,81.94"/>
    </edge>
    <edge id=":J125_2" function="internal">
        <lane id=":J125_2_0" index="0" speed="8.43" length="4.15" shape="573.39,67.46 572.03,71.39"/>
    </edge>
    <edge id=":J125_8" function="internal">
        <lane id=":J125_8_0" index="0" speed="8.43" length="13.64" shape="572.03,71.39 571.96,71.61 569.19,74.01 565.07,74.67 559.61,73.58"/>
    </edge>
    <edge id=":J125_3" function="internal">
        <lane id=":J125_3_0" index="0" speed="6.19" length="9.05" shape="560.58,70.52 563.09,70.95 565.00,70.42 566.33,68.93 567.06,66.50"/>
    </edge>
    <edge id=":J125_4" function="internal">
        <lane id=":J125_4_0" index="0" speed="9.17" length="16.99" shape="560.58,70.52 565.66,72.65 569.10,75.27 570.89,78.36 571.04,81.94"/>
    </edge>
    <edge id=":J125_5" function="internal">
        <lane id=":J125_5_0" index="0" speed="7.11" length="9.84" shape="564.74,80.83 564.77,78.39 563.92,76.36 562.20,74.76 559.61,73.58"/>
    </edge>
    <edge id=":J125_6" function="internal">
        <lane id=":J125_6_0" index="0" speed="13.89" length="14.56" shape="564.74,80.83 567.06,66.50"/>
        <lane id=":J125_6_1" index="1" speed="13.89" length="14.56" shape="567.89,81.39 570.23,66.98"/>
    </edge>
    <edge id=":J126_0" function="internal">
        <lane id=":J126_0_0" index="0" speed="6.60" length="10.66" shape="255.64,-295.79 253.11,-296.10 251.16,-295.19 249.79,-293.06 249.01,-289.72"/>
    </edge>
    <edge id=":J126_1" function="internal">
        <lane id=":J126_1_0" index="0" speed="13.89" length="13.89" shape="255.64,-295.79 242.44,-300.10"/>
    </edge>
    <edge id=":J126_2" function="internal">
        <lane id=":J126_2_0" index="0" speed="13.89" length="13.87" shape="244.44,-306.18 257.62,-301.88"/>
        <lane id=":J126_2_1" index="1" speed="13.89" length="13.87" shape="243.44,-303.14 256.63,-298.83"/>
    </edge>
    <edge id=":J126_4" function="internal">
        <lane id=":J126_4_0" index="0" speed="9.07" length="3.41" shape="243.44,-303.14 246.40,-301.44"/>
    </edge>
    <edge id=":J126_7" function="internal">
        <lane id=":J126_7_0" index="0" speed="9.07" length="12.41" shape="246.40,-301.44 248.31,-298.64 249.18,-294.73 249.01,-289.72"/>
    </edge>
    <edge id=":J126_5" function="internal">
        <lane id=":J126_5_0" index="0" speed="6.99" length="9.02" shape="245.83,-290.12 245.80,-292.53 245.06,-294.49 243.61,-296.00 241.44,-297.06"/>
    </edge>
    <edge id=":J126_6" function="internal">
        <lane id=":J126_6_0" index="0" speed="8.07" length="16.55" shape="245.83,-290.12 247.06,-295.07 249.27,-298.17 252.46,-299.42 256.63,-298.83"/>
    </edge>
    <edge id=":J128_0" function="internal">
        <lane id=":J128_0_0" index="0" speed="10.37" length="24.68" shape="101.99,-1308.95 95.91,-1311.95 92.27,-1316.16 91.05,-1321.59 92.27,-1328.24"/>
        <lane id=":J128_0_1" index="1" speed="9.84" length="22.14" shape="101.99,-1308.95 97.24,-1311.51 94.54,-1315.41 93.90,-1320.64 95.30,-1327.22"/>
    </edge>
    <edge id=":J128_2" function="internal">
        <lane id=":J128_2_0" index="0" speed="6.47" length="9.03" shape="101.42,-1325.17 100.96,-1322.73 101.40,-1320.74 102.73,-1319.21 104.96,-1318.12"/>
        <lane id=":J128_2_1" index="1" speed="7.97" length="14.23" shape="98.38,-1326.19 97.67,-1322.35 98.36,-1319.22 100.46,-1316.79 103.98,-1315.07"/>
        <lane id=":J128_2_2" index="2" speed="8.64" length="16.92" shape="98.38,-1326.19 97.22,-1321.02 97.60,-1316.94 99.52,-1313.94 102.99,-1312.03"/>
    </edge>
    <edge id=":J129_0" function="internal">
        <lane id=":J129_0_0" index="0" speed="6.85" length="10.27" shape="560.46,-692.13 557.37,-692.68 554.95,-692.31 553.20,-690.99 552.11,-688.75"/>
    </edge>
    <edge id=":J129_1" function="internal">
        <lane id=":J129_1_0" index="0" speed="13.89" length="28.57" shape="560.46,-692.13 533.12,-700.78"/>
        <lane id=":J129_1_1" index="1" speed="13.89" length="28.57" shape="561.38,-695.19 534.15,-703.82"/>
        <lane id=":J129_1_2" index="2" speed="13.89" length="28.57" shape="562.30,-698.26 535.17,-706.85"/>
    </edge>
    <edge id=":J129_4" function="internal">
        <lane id=":J129_4_0" index="0" speed="10.85" length="13.00" shape="563.22,-701.32 555.61,-704.85 552.89,-708.58"/>
    </edge>
    <edge id=":J129_20" function="internal">
        <lane id=":J129_20_0" index="0" speed="10.85" length="16.70" shape="552.89,-708.58 552.06,-709.71 552.03,-716.18 554.95,-724.51"/>
    </edge>
    <edge id=":J129_5" function="internal">
        <lane id=":J129_5_0" index="0" speed="6.24" length="9.05" shape="563.70,-720.57 563.01,-718.14 563.30,-716.17 564.60,-714.65 566.89,-713.58"/>
    </edge>
    <edge id=":J129_6" function="internal">
        <lane id=":J129_6_0" index="0" speed="13.89" length="34.41" shape="563.70,-720.57 559.86,-711.86 557.10,-704.95 554.75,-697.89 552.11,-688.75"/>
        <lane id=":J129_6_1" index="1" speed="13.89" length="34.41" shape="560.79,-721.88 556.91,-713.10 554.10,-706.03 551.69,-698.82 549.03,-689.60"/>
        <lane id=":J129_6_2" index="2" speed="13.89" length="34.41" shape="557.87,-723.20 553.97,-714.34 551.10,-707.12 548.63,-699.75 545.95,-690.45"/>
    </edge>
    <edge id=":J129_9" function="internal">
        <lane id=":J129_9_0" index="0" speed="11.52" length="10.11" shape="557.87,-723.20 553.49,-715.65 552.47,-714.70"/>
    </edge>
    <edge id=":J129_21" function="internal">
        <lane id=":J129_21_0" index="0" speed="11.52" length="18.15" shape="552.47,-714.70 548.42,-710.91 542.65,-708.99 536.19,-709.88"/>
    </edge>
    <edge id=":J129_10" function="internal">
        <lane id=":J129_10_0" index="0" speed="8.87" length="16.34" shape="540.28,-722.01 545.61,-720.68 549.83,-720.65 552.94,-721.93 554.95,-724.51"/>
    </edge>
    <edge id=":J129_11" function="internal">
        <lane id=":J129_11_0" index="0" speed="13.89" length="28.02" shape="540.28,-722.01 566.89,-713.58"/>
        <lane id=":J129_11_1" index="1" speed="13.89" length="28.02" shape="539.26,-718.98 565.97,-710.52"/>
        <lane id=":J129_11_2" index="2" speed="13.89" length="28.02" shape="538.24,-715.95 565.05,-707.45"/>
    </edge>
    <edge id=":J129_14" function="internal">
        <lane id=":J129_14_0" index="0" speed="12.02" length="14.69" shape="537.22,-712.91 545.55,-708.91 549.36,-705.02"/>
        <lane id=":J129_14_1" index="1" speed="11.56" length="12.67" shape="537.22,-712.91 544.22,-709.34 547.33,-705.68"/>
        <lane id=":J129_14_2" index="2" speed="11.09" length="10.68" shape="537.22,-712.91 542.89,-709.78 545.29,-706.34"/>
    </edge>
    <edge id=":J129_22" function="internal">
        <lane id=":J129_22_0" index="0" speed="12.02" length="17.26" shape="549.36,-705.02 550.81,-703.54 553.00,-696.82 552.11,-688.75"/>
    </edge>
    <edge id=":J129_23" function="internal">
        <lane id=":J129_23_0" index="0" speed="11.56" length="16.78" shape="547.33,-705.68 548.52,-704.27 550.13,-697.69 549.03,-689.60"/>
    </edge>
    <edge id=":J129_24" function="internal">
        <lane id=":J129_24_0" index="0" speed="11.09" length="16.36" shape="545.29,-706.34 546.23,-704.99 547.25,-698.55 545.95,-690.45"/>
    </edge>
    <edge id=":J129_17" function="internal">
        <lane id=":J129_17_0" index="0" speed="6.83" length="9.62" shape="536.68,-693.02 537.09,-695.75 536.63,-697.96 535.31,-699.64 533.12,-700.78"/>
    </edge>
    <edge id=":J129_18" function="internal">
        <lane id=":J129_18_0" index="0" speed="13.89" length="35.81" shape="539.77,-692.16 543.54,-702.67 548.09,-712.05 552.28,-719.57 554.95,-724.51"/>
    </edge>
    <edge id=":J129_19" function="internal">
        <lane id=":J129_19_0" index="0" speed="11.08" length="6.02" shape="542.85,-691.31 545.20,-696.85"/>
    </edge>
    <edge id=":J129_25" function="internal">
        <lane id=":J129_25_0" index="0" speed="11.08" length="22.58" shape="545.20,-696.85 546.05,-698.86 550.66,-703.56 556.69,-705.40 564.14,-704.39"/>
    </edge>
    <edge id=":J131_0" function="internal">
        <lane id=":J131_0_0" index="0" speed="7.27" length="11.83" shape="315.90,-1408.92 312.06,-1409.42 309.15,-1408.96 307.19,-1407.53 306.18,-1405.15"/>
        <lane id=":J131_0_1" index="1" speed="8.04" length="14.72" shape="315.90,-1408.92 310.69,-1409.72 306.81,-1409.46 304.25,-1408.13 303.04,-1405.75"/>
    </edge>
    <edge id=":J131_2" function="internal">
        <lane id=":J131_2_0" index="0" speed="13.89" length="33.85" shape="315.90,-1408.92 282.77,-1415.12"/>
        <lane id=":J131_2_1" index="1" speed="13.89" length="33.85" shape="315.90,-1408.92 283.24,-1418.29"/>
    </edge>
    <edge id=":J131_4" function="internal">
        <lane id=":J131_4_0" index="0" speed="11.73" length="7.07" shape="316.61,-1412.04 309.82,-1414.04"/>
        <lane id=":J131_4_1" index="1" speed="11.19" length="6.42" shape="316.61,-1412.04 310.47,-1413.92"/>
    </edge>
    <edge id=":J131_24" function="internal">
        <lane id=":J131_24_0" index="0" speed="11.73" length="23.36" shape="309.82,-1414.04 306.08,-1415.15 298.83,-1418.96 294.87,-1423.47 294.19,-1428.69"/>
    </edge>
    <edge id=":J131_25" function="internal">
        <lane id=":J131_25_0" index="0" speed="11.19" length="21.23" shape="310.47,-1413.92 307.45,-1414.85 301.18,-1418.47 297.81,-1422.90 297.34,-1428.15"/>
    </edge>
    <edge id=":J131_6" function="internal">
        <lane id=":J131_6_0" index="0" speed="6.86" length="9.75" shape="313.11,-1425.42 313.04,-1422.80 313.84,-1420.75 315.49,-1419.24 318.02,-1418.30"/>
        <lane id=":J131_6_1" index="1" speed="7.64" length="12.34" shape="313.11,-1425.42 312.79,-1421.43 313.39,-1418.39 314.89,-1416.30 317.31,-1415.18"/>
    </edge>