<?xml version="1.0" encoding="UTF-8"?>

<!-- generated on 2024-03-29 21:42:14 by Eclipse SUMO netedit Version 1.19.0
<configuration xmlns:xsi="http://www.w3.org/2001/XMLSchema-instance" xsi:noNamespaceSchemaLocation="http://sumo.dlr.de/xsd/neteditConfiguration.xsd">

    <input>
        <sumo-net-file value="C:\Users\Lucas\Lucas\traffic_optimization\traffic_optimization\city_timings\school.timing.net.xml"/>
    </input>

    <output>
        <output-file value="C:\Users\Lucas\Lucas\traffic_optimization\traffic_optimization\city_timings\school.timing.net.xml"/>
    </output>

    <processing>
        <geometry.min-radius.fix.railways value="false"/>
        <geometry.max-grade.fix value="false"/>
        <offset.disable-normalization value="true"/>
        <lefthand value="0"/>
    </processing>

    <junctions>
        <no-turnarounds value="true"/>
        <junctions.corner-detail value="5"/>
        <junctions.limit-turn-speed value="5.50"/>
        <rectangular-lane-cut value="0"/>
    </junctions>

    <pedestrian>
        <walkingareas value="0"/>
    </pedestrian>

</configuration>
-->

<net version="1.16" junctionCornerDetail="5" limitTurnSpeed="5.50" xmlns:xsi="http://www.w3.org/2001/XMLSchema-instance" xsi:noNamespaceSchemaLocation="http://sumo.dlr.de/xsd/net_file.xsd">

    <location netOffset="0.00,0.00" convBoundary="-650.00,-1038.14,755.69,510.60" origBoundary="-10000000000.00,-10000000000.00,10000000000.00,10000000000.00" projParameter="!"/>

    <edge id=":J11_0" function="internal">
        <lane id=":J11_0_0" index="0" speed="8.20" length="13.75" shape="-235.63,198.50 -238.59,199.40 -240.72,201.42 -242.02,204.57 -242.47,208.85"/>
    </edge>
    <edge id=":J11_1" function="internal">
        <lane id=":J11_1_0" index="0" speed="13.89" length="28.52" shape="-235.63,198.50 -242.24,199.63 -248.17,201.18 -254.93,202.54 -264.04,203.13"/>
        <lane id=":J11_1_1" index="1" speed="13.89" length="28.52" shape="-235.94,195.32 -242.53,196.45 -248.39,197.98 -255.05,199.34 -264.04,199.93"/>
        <lane id=":J11_1_2" index="2" speed="13.89" length="28.52" shape="-235.94,195.32 -242.56,195.95 -248.45,196.38 -255.12,196.64 -264.04,196.73"/>
    </edge>
    <edge id=":J11_4" function="internal">
        <lane id=":J11_4_0" index="0" speed="10.01" length="7.70" shape="-235.94,195.32 -242.95,195.05 -243.57,194.75"/>
    </edge>
    <edge id=":J11_19" function="internal">
        <lane id=":J11_19_0" index="0" speed="10.01" length="16.90" shape="-243.57,194.75 -247.95,192.67 -250.92,188.18 -251.88,181.58"/>
    </edge>
    <edge id=":J11_5" function="internal">
        <lane id=":J11_5_0" index="0" speed="6.79" length="10.72" shape="-242.28,181.65 -241.94,185.05 -240.88,187.39 -239.09,188.68 -236.58,188.93"/>
    </edge>
    <edge id=":J11_6" function="internal">
        <lane id=":J11_6_0" index="0" speed="13.89" length="27.21" shape="-242.28,181.65 -242.47,208.85"/>
        <lane id=":J11_6_1" index="1" speed="13.89" length="27.21" shape="-245.48,181.62 -245.67,208.83"/>
        <lane id=":J11_6_2" index="2" speed="13.89" length="27.21" shape="-248.68,181.60 -248.87,208.81"/>
    </edge>
    <edge id=":J11_9" function="internal">
        <lane id=":J11_9_0" index="0" speed="10.40" length="4.98" shape="-248.68,181.60 -249.42,186.53"/>
    </edge>
    <edge id=":J11_20" function="internal">
        <lane id=":J11_20_0" index="0" speed="10.40" length="19.57" shape="-249.42,186.53 -249.68,188.22 -252.57,192.94 -257.36,195.78 -264.04,196.73"/>
    </edge>
    <edge id=":J11_10" function="internal">
        <lane id=":J11_10_0" index="0" speed="6.56" length="9.15" shape="-264.05,187.13 -261.54,186.78 -259.74,185.73 -258.65,183.98 -258.28,181.54"/>
    </edge>
    <edge id=":J11_11" function="internal">
        <lane id=":J11_11_0" index="0" speed="13.89" length="27.73" shape="-264.05,187.13 -255.35,187.54 -248.88,188.39 -243.13,189.06 -236.58,188.93"/>
        <lane id=":J11_11_1" index="1" speed="13.89" length="27.73" shape="-264.05,190.33 -255.23,190.74 -248.67,191.59 -242.84,192.25 -236.26,192.11"/>
    </edge>
    <edge id=":J11_13" function="internal">
        <lane id=":J11_13_0" index="0" speed="10.35" length="4.71" shape="-264.05,193.53 -259.38,194.19"/>
    </edge>
    <edge id=":J11_21" function="internal">
        <lane id=":J11_21_0" index="0" speed="10.35" length="19.89" shape="-259.38,194.19 -257.36,194.48 -252.61,197.34 -249.78,202.12 -248.87,208.81"/>
    </edge>
    <edge id=":J11_14" function="internal">
        <lane id=":J11_14_0" index="0" speed="6.49" length="9.03" shape="-258.47,208.74 -258.80,206.28 -259.84,204.53 -261.59,203.48 -264.04,203.13"/>
    </edge>
    <edge id=":J11_15" function="internal">
        <lane id=":J11_15_0" index="0" speed="13.89" length="27.20" shape="-258.47,208.74 -258.28,181.54"/>
        <lane id=":J11_15_1" index="1" speed="13.89" length="27.20" shape="-255.27,208.76 -255.08,181.56"/>
        <lane id=":J11_15_2" index="2" speed="13.89" length="27.20" shape="-252.07,208.78 -251.88,181.58"/>
    </edge>
    <edge id=":J11_18" function="internal">
        <lane id=":J11_18_0" index="0" speed="11.03" length="4.91" shape="-252.07,208.78 -251.33,203.93"/>
    </edge>
    <edge id=":J11_22" function="internal">
        <lane id=":J11_22_0" index="0" speed="11.03" length="20.72" shape="-251.33,203.93 -251.04,202.07 -248.06,197.06 -243.14,193.74 -236.26,192.11"/>
    </edge>
    <edge id=":J12_0" function="internal">
        <lane id=":J12_0_0" index="0" speed="6.47" length="9.03" shape="-235.26,-16.45 -237.73,-16.16 -239.49,-15.14 -240.56,-13.41 -240.93,-10.96"/>
    </edge>
    <edge id=":J12_1" function="internal">
        <lane id=":J12_1_0" index="0" speed="13.89" length="27.31" shape="-235.26,-16.45 -262.50,-16.77"/>
        <lane id=":J12_1_1" index="1" speed="13.89" length="27.31" shape="-235.19,-19.65 -262.50,-19.97"/>
        <lane id=":J12_1_2" index="2" speed="13.89" length="27.31" shape="-235.11,-22.85 -262.50,-23.17"/>
    </edge>
    <edge id=":J12_4" function="internal">
        <lane id=":J12_4_0" index="0" speed="10.45" length="4.72" shape="-235.11,-22.85 -239.78,-23.62"/>
    </edge>
    <edge id=":J12_20" function="internal">
        <lane id=":J12_20_0" index="0" speed="10.45" length="19.92" shape="-239.78,-23.62 -241.81,-23.95 -246.58,-26.89 -249.42,-31.68 -250.32,-38.31"/>
    </edge>
    <edge id=":J12_5" function="internal">
        <lane id=":J12_5_0" index="0" speed="6.64" length="9.33" shape="-240.72,-38.23 -240.37,-35.75 -239.29,-33.96 -237.46,-32.86 -234.89,-32.45"/>
    </edge>
    <edge id=":J12_6" function="internal">
        <lane id=":J12_6_0" index="0" speed="13.89" length="27.28" shape="-240.72,-38.23 -240.93,-10.96"/>
        <lane id=":J12_6_1" index="1" speed="13.89" length="27.28" shape="-243.92,-38.25 -244.13,-10.98"/>
        <lane id=":J12_6_2" index="2" speed="13.89" length="27.28" shape="-247.12,-38.28 -247.33,-11.00"/>
    </edge>
    <edge id=":J12_9" function="internal">
        <lane id=":J12_9_0" index="0" speed="10.40" length="4.96" shape="-247.12,-38.28 -247.87,-33.38"/>
    </edge>
    <edge id=":J12_21" function="internal">
        <lane id=":J12_21_0" index="0" speed="10.40" length="19.58" shape="-247.87,-33.38 -248.13,-31.67 -251.03,-26.95 -255.81,-24.12 -262.50,-23.17"/>
    </edge>
    <edge id=":J12_10" function="internal">
        <lane id=":J12_10_0" index="0" speed="6.56" length="9.14" shape="-262.49,-32.77 -259.98,-33.12 -258.19,-34.17 -257.10,-35.91 -256.72,-38.36"/>
    </edge>
    <edge id=":J12_11" function="internal">
        <lane id=":J12_11_0" index="0" speed="13.89" length="27.53" shape="-262.49,-32.77 -234.89,-32.45"/>
        <lane id=":J12_11_1" index="1" speed="13.89" length="27.53" shape="-262.49,-29.57 -234.97,-29.25"/>
        <lane id=":J12_11_2" index="2" speed="13.89" length="27.53" shape="-262.49,-26.37 -235.04,-26.05"/>
    </edge>
    <edge id=":J12_14" function="internal">
        <lane id=":J12_14_0" index="0" speed="10.37" length="5.40" shape="-262.49,-26.37 -257.15,-25.60"/>
    </edge>
    <edge id=":J12_22" function="internal">
        <lane id=":J12_22_0" index="0" speed="10.37" length="19.26" shape="-257.15,-25.60 -255.82,-25.41 -251.06,-22.53 -248.23,-17.73 -247.33,-11.00"/>
    </edge>
    <edge id=":J12_15" function="internal">
        <lane id=":J12_15_0" index="0" speed="6.52" length="9.11" shape="-256.93,-11.07 -257.26,-13.56 -258.30,-15.35 -260.04,-16.42 -262.50,-16.77"/>
    </edge>
    <edge id=":J12_16" function="internal">
        <lane id=":J12_16_0" index="0" speed="13.89" length="27.29" shape="-256.93,-11.07 -256.72,-38.36"/>
        <lane id=":J12_16_1" index="1" speed="13.89" length="27.29" shape="-253.73,-11.05 -253.52,-38.33"/>
        <lane id=":J12_16_2" index="2" speed="13.89" length="27.29" shape="-250.53,-11.02 -250.32,-38.31"/>
    </edge>
    <edge id=":J12_19" function="internal">
        <lane id=":J12_19_0" index="0" speed="10.34" length="5.02" shape="-250.53,-11.02 -249.78,-15.99"/>
    </edge>
    <edge id=":J12_23" function="internal">
        <lane id=":J12_23_0" index="0" speed="10.34" length="19.67" shape="-249.78,-15.99 -249.52,-17.73 -246.60,-22.47 -241.77,-25.25 -235.04,-26.05"/>
    </edge>
    <edge id=":J13_0" function="internal">
        <lane id=":J13_0_0" index="0" speed="7.80" length="10.71" shape="-232.46,-203.07 -235.49,-201.94 -237.67,-200.40 -238.98,-198.42 -239.43,-196.02"/>
    </edge>
    <edge id=":J13_1" function="internal">
        <lane id=":J13_1_0" index="0" speed="9.63" length="25.75" shape="-232.46,-203.07 -240.31,-201.52 -246.52,-201.86 -250.55,-204.84 -251.82,-211.23"/>
        <lane id=":J13_1_1" index="1" speed="8.94" length="22.01" shape="-232.46,-203.07 -239.70,-201.93 -244.80,-202.90 -247.78,-205.96 -248.62,-211.12"/>
    </edge>
    <edge id=":J13_3" function="internal">
        <lane id=":J13_3_0" index="0" speed="5.96" length="9.09" shape="-239.02,-210.77 -238.75,-208.18 -237.70,-206.55 -235.88,-205.89 -233.29,-206.20"/>
    </edge>
    <edge id=":J13_4" function="internal">
        <lane id=":J13_4_0" index="0" speed="13.89" length="14.84" shape="-239.02,-210.77 -239.43,-196.02"/>
        <lane id=":J13_4_1" index="1" speed="13.89" length="14.84" shape="-242.22,-210.89 -242.63,-196.05"/>
        <lane id=":J13_4_2" index="2" speed="13.89" length="14.84" shape="-245.42,-211.00 -245.83,-196.08"/>
    </edge>
    <edge id=":J13_7" function="internal">
        <lane id=":J13_7_0" index="0" speed="13.89" length="15.11" shape="-255.43,-196.16 -255.01,-211.35"/>
        <lane id=":J13_7_1" index="1" speed="13.89" length="15.11" shape="-252.23,-196.13 -251.82,-211.23"/>
        <lane id=":J13_7_2" index="2" speed="13.89" length="15.11" shape="-249.03,-196.10 -248.62,-211.12"/>
    </edge>
    <edge id=":J13_10" function="internal">
        <lane id=":J13_10_0" index="0" speed="10.40" length="2.43" shape="-249.03,-196.10 -248.22,-198.40"/>
    </edge>
    <edge id=":J13_11" function="internal">
        <lane id=":J13_11_0" index="0" speed="10.40" length="17.23" shape="-248.22,-198.40 -248.03,-198.96 -245.07,-201.59 -240.16,-204.00 -233.29,-206.20"/>
    </edge>
    <edge id=":J25_0" function="internal">
        <lane id=":J25_0_0" index="0" speed="6.84" length="9.82" shape="-216.84,-667.47 -219.35,-667.08 -221.18,-665.90 -222.32,-663.91 -222.77,-661.14"/>
    </edge>
    <edge id=":J25_1" function="internal">
        <lane id=":J25_1_0" index="0" speed="13.89" length="27.47" shape="-216.84,-667.47 -244.24,-667.31"/>
        <lane id=":J25_1_1" index="1" speed="13.89" length="27.47" shape="-216.83,-670.67 -244.29,-670.51"/>
        <lane id=":J25_1_2" index="2" speed="13.89" length="27.47" shape="-216.81,-673.87 -244.34,-673.71"/>
    </edge>
    <edge id=":J25_4" function="internal">
        <lane id=":J25_4_0" index="0" speed="10.41" length="4.68" shape="-216.81,-673.87 -221.44,-674.55"/>
    </edge>
    <edge id=":J25_20" function="internal">
        <lane id=":J25_20_0" index="0" speed="10.41" length="19.75" shape="-221.44,-674.55 -223.40,-674.84 -228.13,-677.70 -231.00,-682.44 -232.02,-689.07"/>
    </edge>
    <edge id=":J25_5" function="internal">
        <lane id=":J25_5_0" index="0" speed="6.57" length="9.12" shape="-222.42,-689.18 -222.04,-686.69 -220.98,-684.91 -219.22,-683.83 -216.78,-683.47"/>
    </edge>
    <edge id=":J25_6" function="internal">
        <lane id=":J25_6_0" index="0" speed="13.89" length="27.89" shape="-222.42,-689.18 -222.77,-661.14"/>
        <lane id=":J25_6_1" index="1" speed="13.89" length="27.89" shape="-225.62,-689.14 -225.97,-661.25"/>
        <lane id=":J25_6_2" index="2" speed="13.89" length="27.89" shape="-228.82,-689.10 -229.17,-661.37"/>
    </edge>
    <edge id=":J25_9" function="internal">
        <lane id=":J25_9_0" index="0" speed="10.46" length="5.78" shape="-228.82,-689.10 -229.60,-683.38"/>
    </edge>
    <edge id=":J25_21" function="internal">
        <lane id=":J25_21_0" index="0" speed="10.46" length="19.13" shape="-229.60,-683.38 -229.72,-682.46 -232.61,-677.67 -237.48,-674.76 -244.34,-673.71"/>
    </edge>
    <edge id=":J25_10" function="internal">
        <lane id=":J25_10_0" index="0" speed="6.66" length="9.47" shape="-244.49,-683.30 -241.81,-683.69 -239.90,-684.77 -238.77,-686.54 -238.42,-688.99"/>
    </edge>
    <edge id=":J25_11" function="internal">
        <lane id=":J25_11_0" index="0" speed="13.89" length="27.65" shape="-244.49,-683.30 -216.78,-683.47"/>
        <lane id=":J25_11_1" index="1" speed="13.89" length="27.65" shape="-244.44,-680.10 -216.79,-680.27"/>
        <lane id=":J25_11_2" index="2" speed="13.89" length="27.65" shape="-244.39,-676.91 -216.80,-677.07"/>
    </edge>
    <edge id=":J25_14" function="internal">
        <lane id=":J25_14_0" index="0" speed="10.29" length="5.32" shape="-244.39,-676.91 -239.11,-676.23"/>
    </edge>
    <edge id=":J25_22" function="internal">
        <lane id=":J25_22_0" index="0" speed="10.29" length="19.78" shape="-239.11,-676.23 -237.52,-676.02 -232.69,-673.14 -229.91,-668.25 -229.17,-661.37"/>
    </edge>
    <edge id=":J25_15" function="internal">
        <lane id=":J25_15_0" index="0" speed="6.40" length="9.04" shape="-238.76,-661.71 -239.03,-664.19 -240.03,-665.95 -241.77,-666.99 -244.24,-667.31"/>
    </edge>
    <edge id=":J25_16" function="internal">
        <lane id=":J25_16_0" index="0" speed="13.89" length="27.43" shape="-238.76,-661.71 -238.42,-688.99"/>
        <lane id=":J25_16_1" index="1" speed="13.89" length="27.43" shape="-235.57,-661.60 -235.22,-689.03"/>
        <lane id=":J25_16_2" index="2" speed="13.89" length="27.43" shape="-232.37,-661.48 -232.02,-689.07"/>
    </edge>
    <edge id=":J25_19" function="internal">
        <lane id=":J25_19_0" index="0" speed="10.58" length="4.49" shape="-232.37,-661.48 -231.60,-665.91"/>
    </edge>
    <edge id=":J25_23" function="internal">
        <lane id=":J25_23_0" index="0" speed="10.58" length="20.45" shape="-231.60,-665.91 -231.18,-668.32 -228.19,-673.20 -223.40,-676.12 -216.80,-677.07"/>
    </edge>
    <edge id=":J33_0" function="internal">
        <lane id=":J33_0_0" index="0" speed="5.93" length="9.10" shape="-96.29,-663.93 -98.86,-664.47 -100.72,-663.97 -101.87,-662.43 -102.32,-659.84"/>
    </edge>
    <edge id=":J33_1" function="internal">
        <lane id=":J33_1_0" index="0" speed="13.89" length="16.24" shape="-96.29,-663.93 -100.50,-665.50 -103.45,-666.45 -106.48,-666.93 -110.94,-667.08"/>
        <lane id=":J33_1_1" index="1" speed="13.89" length="16.24" shape="-95.19,-666.93 -99.71,-668.61 -102.88,-669.63 -106.14,-670.13 -110.93,-670.28"/>
        <lane id=":J33_1_2" index="2" speed="13.89" length="16.24" shape="-94.09,-669.94 -98.92,-671.73 -102.31,-672.80 -105.80,-673.32 -110.92,-673.48"/>
    </edge>
    <edge id=":J33_4" function="internal">
        <lane id=":J33_4_0" index="0" speed="13.89" length="19.58" shape="-110.88,-683.08 -104.78,-682.91 -100.61,-682.31 -96.56,-681.07 -90.80,-678.94"/>
        <lane id=":J33_4_1" index="1" speed="13.89" length="19.58" shape="-110.90,-679.88 -105.12,-679.71 -101.18,-679.14 -97.35,-677.95 -91.90,-675.93"/>
        <lane id=":J33_4_2" index="2" speed="13.89" length="19.58" shape="-110.91,-676.68 -105.46,-676.52 -101.75,-675.97 -98.14,-674.83 -93.00,-672.93"/>
    </edge>
    <edge id=":J33_7" function="internal">
        <lane id=":J33_7_0" index="0" speed="9.56" length="3.13" shape="-110.91,-676.68 -107.89,-675.86"/>
    </edge>
    <edge id=":J33_11" function="internal">
        <lane id=":J33_11_0" index="0" speed="9.56" length="17.99" shape="-107.89,-675.86 -106.96,-675.61 -104.21,-672.45 -102.67,-667.20 -102.32,-659.84"/>
    </edge>
    <edge id=":J33_8" function="internal">
        <lane id=":J33_8_0" index="0" speed="6.83" length="10.24" shape="-105.51,-659.94 -105.77,-663.06 -106.77,-665.28 -108.49,-666.62 -110.94,-667.08"/>
    </edge>
    <edge id=":J33_9" function="internal">
        <lane id=":J33_9_0" index="0" speed="9.60" length="26.00" shape="-105.51,-659.94 -104.76,-667.92 -102.64,-673.80 -98.55,-676.74 -91.90,-675.93"/>
        <lane id=":J33_9_1" index="1" speed="8.91" length="22.22" shape="-105.51,-659.94 -104.54,-667.27 -102.13,-671.87 -98.28,-673.76 -93.00,-672.93"/>
    </edge>
    <edge id=":J44_0" function="internal">
        <lane id=":J44_0_0" index="0" speed="6.58" length="9.18" shape="69.49,-642.41 69.02,-644.92 67.90,-646.68 66.10,-647.70 63.65,-647.98"/>
    </edge>
    <edge id=":J44_1" function="internal">
        <lane id=":J44_1_0" index="0" speed="9.87" length="22.83" shape="69.49,-642.41 69.70,-650.55 71.19,-656.37 73.96,-659.87 78.01,-661.06"/>
        <lane id=":J44_1_1" index="1" speed="9.25" length="19.92" shape="69.49,-642.41 69.76,-649.15 71.27,-653.97 74.03,-656.87 78.03,-657.86"/>
    </edge>
    <edge id=":J44_3" function="internal">
        <lane id=":J44_3_0" index="0" speed="6.42" length="9.04" shape="78.09,-648.26 75.63,-647.89 73.91,-646.82 72.93,-645.04 72.69,-642.56"/>
    </edge>
    <edge id=":J44_4" function="internal">
        <lane id=":J44_4_0" index="0" speed="13.89" length="14.53" shape="78.09,-648.26 63.65,-647.98"/>
        <lane id=":J44_4_1" index="1" speed="13.89" length="14.53" shape="78.07,-651.46 63.54,-651.18"/>
        <lane id=":J44_4_2" index="2" speed="13.89" length="14.53" shape="78.05,-654.66 63.44,-654.38"/>
    </edge>
    <edge id=":J44_7" function="internal">
        <lane id=":J44_7_0" index="0" speed="13.89" length="14.79" shape="63.12,-663.97 77.99,-664.26"/>
        <lane id=":J44_7_1" index="1" speed="13.89" length="14.79" shape="63.22,-660.77 78.01,-661.06"/>
        <lane id=":J44_7_2" index="2" speed="13.89" length="14.79" shape="63.33,-657.57 78.03,-657.86"/>
    </edge>
    <edge id=":J44_10" function="internal">
        <lane id=":J44_10_0" index="0" speed="9.38" length="3.13" shape="63.33,-657.57 66.38,-656.91"/>
    </edge>
    <edge id=":J44_11" function="internal">
        <lane id=":J44_11_0" index="0" speed="9.38" length="16.56" shape="66.38,-656.91 67.16,-656.74 69.99,-653.96 71.83,-649.24 72.69,-642.56"/>
    </edge>
    <edge id=":J45_0" function="internal">
        <lane id=":J45_0_0" index="0" speed="6.87" length="9.92" shape="375.00,-650.10 372.36,-649.70 370.45,-648.53 369.27,-646.59 368.82,-643.89"/>
    </edge>
    <edge id=":J45_1" function="internal">
        <lane id=":J45_1_0" index="0" speed="13.89" length="27.68" shape="375.00,-650.10 347.32,-649.91"/>
        <lane id=":J45_1_1" index="1" speed="13.89" length="27.68" shape="374.98,-653.30 347.30,-653.11"/>
        <lane id=":J45_1_2" index="2" speed="13.89" length="27.68" shape="374.95,-656.50 347.28,-656.31"/>
    </edge>
    <edge id=":J45_4" function="internal">
        <lane id=":J45_4_0" index="0" speed="10.34" length="5.03" shape="374.95,-656.50 369.97,-657.18"/>
    </edge>
    <edge id=":J45_20" function="internal">
        <lane id=":J45_20_0" index="0" speed="10.34" length="19.68" shape="369.97,-657.18 368.23,-657.41 363.45,-660.26 360.61,-665.05 359.71,-671.78"/>
    </edge>
    <edge id=":J45_5" function="internal">
        <lane id=":J45_5_0" index="0" speed="6.47" length="9.03" shape="369.31,-671.69 369.64,-669.23 370.67,-667.48 372.42,-666.44 374.88,-666.10"/>
    </edge>
    <edge id=":J45_6" function="internal">
        <lane id=":J45_6_0" index="0" speed="13.89" length="27.75" shape="369.31,-671.69 368.82,-643.89"/>
        <lane id=":J45_6_1" index="1" speed="13.89" length="27.75" shape="366.11,-671.72 365.62,-643.97"/>
        <lane id=":J45_6_2" index="2" speed="13.89" length="27.75" shape="362.91,-671.75 362.43,-644.06"/>
    </edge>
    <edge id=":J45_9" function="internal">
        <lane id=":J45_9_0" index="0" speed="10.51" length="5.27" shape="362.91,-671.75 362.11,-666.54"/>
    </edge>
    <edge id=":J45_21" function="internal">
        <lane id=":J45_21_0" index="0" speed="10.51" length="19.69" shape="362.11,-666.54 361.88,-665.03 358.93,-660.22 354.06,-657.31 347.28,-656.31"/>
    </edge>
    <edge id=":J45_10" function="internal">
        <lane id=":J45_10_0" index="0" speed="6.74" length="9.65" shape="347.22,-665.91 349.86,-666.30 351.76,-667.41 352.91,-669.26 353.31,-671.84"/>
    </edge>
    <edge id=":J45_11" function="internal">
        <lane id=":J45_11_0" index="0" speed="13.89" length="27.66" shape="347.22,-665.91 374.88,-666.10"/>
        <lane id=":J45_11_1" index="1" speed="13.89" length="27.66" shape="347.24,-662.71 374.91,-662.90"/>
        <lane id=":J45_11_2" index="2" speed="13.89" length="27.66" shape="347.26,-659.51 374.93,-659.70"/>
    </edge>
    <edge id=":J45_14" function="internal">
        <lane id=":J45_14_0" index="0" speed="10.32" length="4.97" shape="347.26,-659.51 352.19,-658.84"/>
    </edge>
    <edge id=":J45_22" function="internal">
        <lane id=":J45_22_0" index="0" speed="10.32" length="19.90" shape="352.19,-658.84 354.04,-658.58 358.83,-655.70 361.63,-650.85 362.43,-644.06"/>
    </edge>
    <edge id=":J45_15" function="internal">
        <lane id=":J45_15_0" index="0" speed="6.44" length="9.03" shape="352.83,-644.30 352.54,-646.77 351.52,-648.53 349.78,-649.58 347.32,-649.91"/>
    </edge>
    <edge id=":J45_16" function="internal">
        <lane id=":J45_16_0" index="0" speed="13.89" length="27.59" shape="352.83,-644.30 353.31,-671.84"/>
        <lane id=":J45_16_1" index="1" speed="13.89" length="27.59" shape="356.03,-644.22 356.51,-671.81"/>
        <lane id=":J45_16_2" index="2" speed="13.89" length="27.59" shape="359.23,-644.14 359.71,-671.78"/>
    </edge>
    <edge id=":J45_19" function="internal">
        <lane id=":J45_19_0" index="0" speed="10.60" length="4.82" shape="359.23,-644.14 360.02,-648.89"/>
    </edge>
    <edge id=":J45_23" function="internal">
        <lane id=":J45_23_0" index="0" speed="10.60" length="20.22" shape="360.02,-648.89 360.36,-650.90 363.35,-655.75 368.21,-658.69 374.93,-659.70"/>
    </edge>
    <edge id=":J52_0" function="internal">
        <lane id=":J52_0_0" index="0" speed="8.89" length="13.31" shape="51.73,-9.77 49.09,-9.28 46.73,-7.65 44.65,-4.88 42.85,-0.97"/>
    </edge>
    <edge id=":J52_1" function="internal">
        <lane id=":J52_1_0" index="0" speed="13.89" length="21.98" shape="51.73,-9.77 29.77,-10.31"/>
        <lane id=":J52_1_1" index="1" speed="13.89" length="21.98" shape="51.81,-12.97 29.84,-13.51"/>
        <lane id=":J52_1_2" index="2" speed="13.89" length="21.98" shape="51.90,-16.17 29.92,-16.71"/>
    </edge>
    <edge id=":J52_4" function="internal">
        <lane id=":J52_4_0" index="0" speed="9.20" length="3.14" shape="51.90,-16.17 48.86,-16.97"/>
    </edge>
    <edge id=":J52_17" function="internal">
        <lane id=":J52_17_0" index="0" speed="9.20" length="17.02" shape="48.86,-16.97 47.78,-17.25 45.06,-20.24 43.75,-25.13 43.83,-31.93"/>
    </edge>
    <edge id=":J52_5" function="internal">
        <lane id=":J52_5_0" index="0" speed="6.35" length="9.04" shape="47.01,-31.61 47.12,-29.11 48.01,-27.30 49.69,-26.19 52.16,-25.76"/>
    </edge>
    <edge id=":J52_6" function="internal">
        <lane id=":J52_6_0" index="0" speed="11.20" length="30.71" shape="47.01,-31.61 46.64,-26.04 46.05,-17.94 44.90,-9.02 42.85,-0.97"/>
        <lane id=":J52_6_1" index="1" speed="11.20" length="30.71" shape="47.01,-31.61 46.17,-26.22 44.55,-18.50 42.37,-9.96 39.85,-2.09"/>
    </edge>
    <edge id=":J52_8" function="internal">
        <lane id=":J52_8_0" index="0" speed="10.86" length="9.58" shape="47.01,-31.61 45.37,-24.96 43.77,-22.75"/>
    </edge>
    <edge id=":J52_18" function="internal">
        <lane id=":J52_18_0" index="0" speed="10.86" length="15.86" shape="43.77,-22.75 41.97,-20.25 36.82,-17.50 29.92,-16.71"/>
    </edge>
    <edge id=":J52_9" function="internal">
        <lane id=":J52_9_0" index="0" speed="8.73" length="16.08" shape="30.14,-26.30 35.90,-26.54 40.11,-27.56 42.75,-29.36 43.83,-31.93"/>
    </edge>
    <edge id=":J52_10" function="internal">
        <lane id=":J52_10_0" index="0" speed="13.89" length="22.01" shape="30.14,-26.30 52.16,-25.76"/>
        <lane id=":J52_10_1" index="1" speed="13.89" length="22.01" shape="30.07,-23.11 52.07,-22.57"/>
        <lane id=":J52_10_2" index="2" speed="13.89" length="22.01" shape="29.99,-19.91 51.99,-19.37"/>
    </edge>
    <edge id=":J52_13" function="internal">
        <lane id=":J52_13_0" index="0" speed="9.48" length="4.47" shape="29.99,-19.91 34.39,-19.09"/>
    </edge>
    <edge id=":J52_19" function="internal">
        <lane id=":J52_19_0" index="0" speed="9.48" length="21.02" shape="34.39,-19.09 36.73,-18.65 40.62,-15.26 41.66,-9.74 39.85,-2.09"/>
    </edge>
    <edge id=":J52_14" function="internal">
        <lane id=":J52_14_0" index="0" speed="5.91" length="9.10" shape="33.84,-4.31 34.40,-6.88 33.91,-8.74 32.37,-9.88 29.77,-10.31"/>
    </edge>
    <edge id=":J52_15" function="internal">
        <lane id=":J52_15_0" index="0" speed="11.20" length="29.41" shape="33.84,-4.31 36.80,-11.88 39.95,-19.77 42.54,-26.84 43.83,-31.93"/>
    </edge>
    <edge id=":J52_16" function="internal">
        <lane id=":J52_16_0" index="0" speed="11.67" length="6.24" shape="36.84,-3.20 39.41,-8.89"/>
    </edge>
    <edge id=":J52_20" function="internal">
        <lane id=":J52_20_0" index="0" speed="11.67" length="17.26" shape="39.41,-8.89 40.07,-10.36 43.67,-15.45 47.64,-18.45 51.99,-19.37"/>
    </edge>
    <edge id=":J54_0" function="internal">
        <lane id=":J54_0_0" index="0" speed="13.89" length="14.19" shape="366.01,-533.39 365.76,-519.25"/>
        <lane id=":J54_0_1" index="1" speed="13.89" length="14.19" shape="362.82,-533.47 362.56,-519.29"/>
        <lane id=":J54_0_2" index="2" speed="13.89" length="14.19" shape="359.62,-533.55 359.36,-519.32"/>
    </edge>
    <edge id=":J54_3" function="internal">
        <lane id=":J54_3_0" index="0" speed="9.39" length="2.88" shape="359.62,-533.55 358.84,-530.78"/>
    </edge>
    <edge id=":J54_11" function="internal">
        <lane id=":J54_11_0" index="0" speed="9.39" length="16.66" shape="358.84,-530.78 358.57,-529.83 355.66,-527.17 350.87,-525.57 344.21,-525.04"/>
    </edge>
    <edge id=":J54_4" function="internal">
        <lane id=":J54_4_0" index="0" speed="6.59" length="9.12" shape="344.21,-528.24 346.70,-528.59 348.50,-529.63 349.60,-531.37 350.02,-533.80"/>
    </edge>
    <edge id=":J54_5" function="internal">
        <lane id=":J54_5_0" index="0" speed="9.92" length="22.57" shape="344.21,-528.24 352.27,-527.68 358.02,-526.00 361.45,-523.20 362.56,-519.29"/>
        <lane id=":J54_5_1" index="1" speed="9.30" length="19.70" shape="344.21,-528.24 350.87,-527.68 355.62,-526.01 358.45,-523.22 359.36,-519.32"/>
    </edge>
    <edge id=":J54_7" function="internal">
        <lane id=":J54_7_0" index="0" speed="6.48" length="9.03" shape="349.76,-519.42 349.44,-521.88 348.40,-523.64 346.66,-524.69 344.21,-525.04"/>
    </edge>
    <edge id=":J54_8" function="internal">
        <lane id=":J54_8_0" index="0" speed="13.89" length="14.33" shape="349.76,-519.42 350.02,-533.80"/>
        <lane id=":J54_8_1" index="1" speed="13.89" length="14.33" shape="352.96,-519.39 353.22,-533.72"/>
        <lane id=":J54_8_2" index="2" speed="13.89" length="14.33" shape="356.16,-519.36 356.42,-533.64"/>
    </edge>
    <edge id=":J55_0" function="internal">
        <lane id=":J55_0_0" index="0" speed="13.89" length="14.57" shape="363.19,-276.21 362.94,-261.60"/>
        <lane id=":J55_0_1" index="1" speed="13.89" length="14.57" shape="359.99,-276.25 359.74,-261.68"/>
        <lane id=":J55_0_2" index="2" speed="13.89" length="14.57" shape="356.79,-276.28 356.54,-261.75"/>
    </edge>
    <edge id=":J55_3" function="internal">
        <lane id=":J55_3_0" index="0" speed="9.33" length="3.09" shape="356.79,-276.28 356.01,-273.29"/>
    </edge>
    <edge id=":J55_11" function="internal">
        <lane id=":J55_11_0" index="0" speed="9.33" length="16.57" shape="356.01,-273.29 355.79,-272.45 352.91,-269.73 348.13,-268.13 341.45,-267.64"/>
    </edge>
    <edge id=":J55_4" function="internal">
        <lane id=":J55_4_0" index="0" speed="6.52" length="9.07" shape="341.48,-270.84 343.96,-271.17 345.73,-272.20 346.81,-273.94 347.19,-276.38"/>
    </edge>
    <edge id=":J55_5" function="internal">
        <lane id=":J55_5_0" index="0" speed="9.92" length="22.59" shape="341.48,-270.84 349.55,-270.20 355.28,-268.46 358.68,-265.62 359.74,-261.68"/>
        <lane id=":J55_5_1" index="1" speed="9.30" length="19.72" shape="341.48,-270.84 348.15,-270.22 352.88,-268.49 355.68,-265.67 356.54,-261.75"/>
    </edge>
    <edge id=":J55_7" function="internal">
        <lane id=":J55_7_0" index="0" speed="6.48" length="9.03" shape="346.95,-261.97 346.65,-264.43 345.64,-266.19 343.90,-267.26 341.45,-267.64"/>
    </edge>
    <edge id=":J55_8" function="internal">
        <lane id=":J55_8_0" index="0" speed="13.89" length="14.46" shape="346.95,-261.97 347.19,-276.38"/>