<configuration>
    <input>
        <net-file value="C:\Users\Lucas Chan\traffic_optimisation\traffic_optimization_jan28\traffic_optimization/NETWORKS/simple_network/simple_network.net.xml"/>
        <route-files value="C:\Users\Lucas Chan\traffic_optimisation\traffic_optimization_jan28\traffic_optimization/RESOURCES/DEMO_TEST/trip_file.xml"/>
    </input>
    <time>
        <begin value="0"/>
        <end value="2000"/>
    </time>
</configuration>