<?xml version="1.0" encoding="UTF-8"?>

<!-- generated on 2026-01-11 15:00:42 by Eclipse SUMO netedit Version 1.19.0
-->

<additional xmlns:xsi="http://www.w3.org/2001/XMLSchema-instance" xsi:noNamespaceSchemaLocation="http://sumo.dlr.de/xsd/additional_file.xsd">
    <!-- Detectors -->
    <inductionLoop id="e1_0" lane="-E30_1" pos="651.82" period="300.00" file="C:/Users/Lucas/Lucas/traffic_optimization/traffic_optimization/out/e1_0.xml"/>
    <inductionLoop id="e1_1" lane="-E30_2" pos="652.51" period="300.00" file="C:/Users/Lucas/Lucas/traffic_optimization/traffic_optimization/out/e1_1.xml"/>
    <inductionLoop id="e1_10" lane="E25_1" pos="390.36" period="300.00" file="C:/Users/Lucas/Lucas/traffic_optimization/traffic_optimization/out/e1_10.xml"/>
    <inductionLoop id="e1_100" lane="E173_1" pos="169.55" period="300.00" file="C:/Users/Lucas/Lucas/traffic_optimization/traffic_optimization/out/e1_100.xml"/>
    <inductionLoop id="e1_101" lane="E173_0" pos="169.73" period="300.00" file="C:/Users/Lucas/Lucas/traffic_optimization/traffic_optimization/out/e1_101.xml"/>
    <inductionLoop id="e1_102" lane="-E175_3" pos="425.38" period="300.00" file="C:/Users/Lucas/Lucas/traffic_optimization/traffic_optimization/out/e1_102.xml"/>
    <inductionLoop id="e1_103" lane="-E175_2" pos="425.68" period="300.00" file="C:/Users/Lucas/Lucas/traffic_optimization/traffic_optimization/out/e1_103.xml"/>
    <inductionLoop id="e1_104" lane="-E175_1" pos="425.47" period="300.00" file="C:/Users/Lucas/Lucas/traffic_optimization/traffic_optimization/out/e1_104.xml"/>
    <inductionLoop id="e1_105" lane="-E175_0" pos="426.09" period="300.00" file="C:/Users/Lucas/Lucas/traffic_optimization/traffic_optimization/out/e1_105.xml"/>
    <inductionLoop id="e1_106" lane="E64_1" pos="778.24" period="300.00" file="C:/Users/Lucas/Lucas/traffic_optimization/traffic_optimization/out/e1_106.xml"/>
    <inductionLoop id="e1_107" lane="E64_0" pos="778.82" period="300.00" file="C:/Users/Lucas/Lucas/traffic_optimization/traffic_optimization/out/e1_107.xml"/>
    <inductionLoop id="e1_108" lane="E174_3" pos="345.11" period="300.00" file="C:/Users/Lucas/Lucas/traffic_optimization/traffic_optimization/out/e1_108.xml"/>
    <inductionLoop id="e1_109" lane="E174_2" pos="345.26" period="300.00" file="C:/Users/Lucas/Lucas/traffic_optimization/traffic_optimization/out/e1_109.xml"/>
    <inductionLoop id="e1_11" lane="E25_0" pos="390.49" period="300.00" file="C:/Users/Lucas/Lucas/traffic_optimization/traffic_optimization/out/e1_11.xml"/>
    <inductionLoop id="e1_110" lane="E174_1" pos="345.28" period="300.00" file="C:/Users/Lucas/Lucas/traffic_optimization/traffic_optimization/out/e1_110.xml"/>
    <inductionLoop id="e1_111" lane="E174_0" pos="345.17" period="300.00" file="C:/Users/Lucas/Lucas/traffic_optimization/traffic_optimization/out/e1_111.xml"/>
    <inductionLoop id="e1_112" lane="E196_2" pos="351.37" period="300.00" file="C:/Users/Lucas/Lucas/traffic_optimization/traffic_optimization/out/e1_112.xml"/>
    <inductionLoop id="e1_113" lane="E196_1" pos="350.29" period="300.00" file="C:/Users/Lucas/Lucas/traffic_optimization/traffic_optimization/out/e1_113.xml"/>
    <inductionLoop id="e1_114" lane="E196_0" pos="350.68" period="300.00" file="C:/Users/Lucas/Lucas/traffic_optimization/traffic_optimization/out/e1_114.xml"/>
    <inductionLoop id="e1_115" lane="-E78_0" pos="408.43" period="300.00" file="C:/Users/Lucas/Lucas/traffic_optimization/traffic_optimization/out/e1_115.xml"/>
    <inductionLoop id="e1_116" lane="-E78_1" pos="408.36" period="300.00" file="C:/Users/Lucas/Lucas/traffic_optimization/traffic_optimization/out/e1_116.xml"/>
    <inductionLoop id="e1_117" lane="-E78_2" pos="408.49" period="300.00" file="C:/Users/Lucas/Lucas/traffic_optimization/traffic_optimization/out/e1_117.xml"/>
    <inductionLoop id="e1_118" lane="-E78_3" pos="408.51" period="300.00" file="C:/Users/Lucas/Lucas/traffic_optimization/traffic_optimization/out/e1_118.xml"/>
    <inductionLoop id="e1_119" lane="E77_3" pos="792.53" period="300.00" file="C:/Users/Lucas/Lucas/traffic_optimization/traffic_optimization/out/e1_119.xml"/>
    <inductionLoop id="e1_12" lane="E48_3" pos="637.06" period="300.00" file="C:/Users/Lucas/Lucas/traffic_optimization/traffic_optimization/out/e1_12.xml"/>
    <inductionLoop id="e1_120" lane="E77_2" pos="792.51" period="300.00" file="C:/Users/Lucas/Lucas/traffic_optimization/traffic_optimization/out/e1_120.xml"/>
    <inductionLoop id="e1_121" lane="E77_1" pos="792.37" period="300.00" file="C:/Users/Lucas/Lucas/traffic_optimization/traffic_optimization/out/e1_121.xml"/>
    <inductionLoop id="e1_122" lane="E77_0" pos="792.95" period="300.00" file="C:/Users/Lucas/Lucas/traffic_optimization/traffic_optimization/out/e1_122.xml"/>
    <inductionLoop id="e1_123" lane="E7_3" pos="300.00" period="300.00" file="C:/Users/Lucas/Lucas/traffic_optimization/traffic_optimization/out/e1_123.xml"/>
    <inductionLoop id="e1_124" lane="E7_2" pos="300.50" period="300.00" file="C:/Users/Lucas/Lucas/traffic_optimization/traffic_optimization/out/e1_124.xml"/>
    <inductionLoop id="e1_125" lane="E7_1" pos="300.44" period="300.00" file="C:/Users/Lucas/Lucas/traffic_optimization/traffic_optimization/out/e1_125.xml"/>
    <inductionLoop id="e1_126" lane="E7_0" pos="300.62" period="300.00" file="C:/Users/Lucas/Lucas/traffic_optimization/traffic_optimization/out/e1_126.xml"/>
    <inductionLoop id="e1_127" lane="-E111_3" pos="624.24" period="300.00" file="C:/Users/Lucas/Lucas/traffic_optimization/traffic_optimization/out/e1_127.xml"/>
    <inductionLoop id="e1_128" lane="-E111_2" pos="624.44" period="300.00" file="C:/Users/Lucas/Lucas/traffic_optimization/traffic_optimization/out/e1_128.xml"/>
    <inductionLoop id="e1_129" lane="-E111_1" pos="624.41" period="300.00" file="C:/Users/Lucas/Lucas/traffic_optimization/traffic_optimization/out/e1_129.xml"/>
    <inductionLoop id="e1_13" lane="E48_2" pos="637.08" period="300.00" file="C:/Users/Lucas/Lucas/traffic_optimization/traffic_optimization/out/e1_13.xml"/>
    <inductionLoop id="e1_130" lane="-E111_0" pos="624.03" period="300.00" file="C:/Users/Lucas/Lucas/traffic_optimization/traffic_optimization/out/e1_130.xml"/>
    <inductionLoop id="e1_131" lane="-E144_2" pos="162.25" period="300.00" file="C:/Users/Lucas/Lucas/traffic_optimization/traffic_optimization/out/e1_131.xml"/>
    <inductionLoop id="e1_132" lane="-E144_1" pos="162.63" period="300.00" file="C:/Users/Lucas/Lucas/traffic_optimization/traffic_optimization/out/e1_132.xml"/>
    <inductionLoop id="e1_133" lane="-E144_0" pos="162.59" period="300.00" file="C:/Users/Lucas/Lucas/traffic_optimization/traffic_optimization/out/e1_133.xml"/>
    <inductionLoop id="e1_134" lane="E111_3" pos="623.49" period="300.00" file="C:/Users/Lucas/Lucas/traffic_optimization/traffic_optimization/out/e1_134.xml"/>
    <inductionLoop id="e1_135" lane="E111_2" pos="623.48" period="300.00" file="C:/Users/Lucas/Lucas/traffic_optimization/traffic_optimization/out/e1_135.xml"/>
    <inductionLoop id="e1_136" lane="E111_1" pos="623.42" period="300.00" file="C:/Users/Lucas/Lucas/traffic_optimization/traffic_optimization/out/e1_136.xml"/>
    <inductionLoop id="e1_137" lane="E111_0" pos="623.39" period="300.00" file="C:/Users/Lucas/Lucas/traffic_optimization/traffic_optimization/out/e1_137.xml"/>
    <inductionLoop id="e1_138" lane="-E140_2" pos="1017.41" period="300.00" file="C:/Users/Lucas/Lucas/traffic_optimization/traffic_optimization/out/e1_138.xml"/>
    <inductionLoop id="e1_139" lane="-E140_1" pos="1017.02" period="300.00" file="C:/Users/Lucas/Lucas/traffic_optimization/traffic_optimization/out/e1_139.xml"/>
    <inductionLoop id="e1_14" lane="E48_1" pos="636.70" period="300.00" file="C:/Users/Lucas/Lucas/traffic_optimization/traffic_optimization/out/e1_14.xml"/>
    <inductionLoop id="e1_140" lane="-E140_0" pos="1017.51" period="300.00" file="C:/Users/Lucas/Lucas/traffic_optimization/traffic_optimization/out/e1_140.xml"/>
    <inductionLoop id="e1_141" lane="-E129_3" pos="473.56" period="300.00" file="C:/Users/Lucas/Lucas/traffic_optimization/traffic_optimization/out/e1_141.xml"/>
    <inductionLoop id="e1_142" lane="-E129_2" pos="472.74" period="300.00" file="C:/Users/Lucas/Lucas/traffic_optimization/traffic_optimization/out/e1_142.xml"/>
    <inductionLoop id="e1_143" lane="-E129_1" pos="473.12" period="300.00" file="C:/Users/Lucas/Lucas/traffic_optimization/traffic_optimization/out/e1_143.xml"/>
    <inductionLoop id="e1_144" lane="-E129_0" pos="473.42" period="300.00" file="C:/Users/Lucas/Lucas/traffic_optimization/traffic_optimization/out/e1_144.xml"/>
    <inductionLoop id="e1_145" lane="-E147_1" pos="125.50" period="300.00" file="C:/Users/Lucas/Lucas/traffic_optimization/traffic_optimization/out/e1_145.xml"/>
    <inductionLoop id="e1_146" lane="-E147_0" pos="126.60" period="300.00" file="C:/Users/Lucas/Lucas/traffic_optimization/traffic_optimization/out/e1_146.xml"/>
    <inductionLoop id="e1_147" lane="E129_3" pos="473.64" period="300.00" file="C:/Users/Lucas/Lucas/traffic_optimization/traffic_optimization/out/e1_147.xml"/>
    <inductionLoop id="e1_148" lane="E129_2" pos="472.49" period="300.00" file="C:/Users/Lucas/Lucas/traffic_optimization/traffic_optimization/out/e1_148.xml"/>
    <inductionLoop id="e1_149" lane="E129_1" pos="472.38" period="300.00" file="C:/Users/Lucas/Lucas/traffic_optimization/traffic_optimization/out/e1_149.xml"/>
    <inductionLoop id="e1_15" lane="E48_0" pos="637.24" period="300.00" file="C:/Users/Lucas/Lucas/traffic_optimization/traffic_optimization/out/e1_15.xml"/>
    <inductionLoop id="e1_150" lane="E129_0" pos="472.05" period="300.00" file="C:/Users/Lucas/Lucas/traffic_optimization/traffic_optimization/out/e1_150.xml"/>
    <inductionLoop id="e1_151" lane="E142_1" pos="665.29" period="300.00" file="C:/Users/Lucas/Lucas/traffic_optimization/traffic_optimization/out/e1_151.xml"/>
    <inductionLoop id="e1_152" lane="E142_0" pos="664.87" period="300.00" file="C:/Users/Lucas/Lucas/traffic_optimization/traffic_optimization/out/e1_152.xml"/>
    <inductionLoop id="e1_153" lane="-E135_3" pos="476.89" period="300.00" file="C:/Users/Lucas/Lucas/traffic_optimization/traffic_optimization/out/e1_153.xml"/>
    <inductionLoop id="e1_154" lane="-E135_2" pos="476.80" period="300.00" file="C:/Users/Lucas/Lucas/traffic_optimization/traffic_optimization/out/e1_154.xml"/>
    <inductionLoop id="e1_155" lane="-E135_1" pos="477.36" period="300.00" file="C:/Users/Lucas/Lucas/traffic_optimization/traffic_optimization/out/e1_155.xml"/>
    <inductionLoop id="e1_156" lane="-E135_0" pos="477.06" period="300.00" file="C:/Users/Lucas/Lucas/traffic_optimization/traffic_optimization/out/e1_156.xml"/>
    <inductionLoop id="e1_157" lane="-E153_1" pos="119.19" period="300.00" file="C:/Users/Lucas/Lucas/traffic_optimization/traffic_optimization/out/e1_157.xml"/>
    <inductionLoop id="e1_158" lane="-E153_0" pos="119.62" period="300.00" file="C:/Users/Lucas/Lucas/traffic_optimization/traffic_optimization/out/e1_158.xml"/>
    <inductionLoop id="e1_159" lane="E135_3" pos="477.92" period="300.00" file="C:/Users/Lucas/Lucas/traffic_optimization/traffic_optimization/out/e1_159.xml"/>
    <inductionLoop id="e1_16" lane="-E121_0" pos="650.85" period="300.00" file="C:/Users/Lucas/Lucas/traffic_optimization/traffic_optimization/out/e1_16.xml"/>
    <inductionLoop id="e1_160" lane="E135_2" pos="476.45" period="300.00" file="C:/Users/Lucas/Lucas/traffic_optimization/traffic_optimization/out/e1_160.xml"/>
    <inductionLoop id="e1_161" lane="E135_1" pos="476.65" period="300.00" file="C:/Users/Lucas/Lucas/traffic_optimization/traffic_optimization/out/e1_161.xml"/>
    <inductionLoop id="e1_162" lane="E135_0" pos="477.09" period="300.00" file="C:/Users/Lucas/Lucas/traffic_optimization/traffic_optimization/out/e1_162.xml"/>
    <inductionLoop id="e1_163" lane="E56_1" pos="335.87" period="300.00" file="C:/Users/Lucas/Lucas/traffic_optimization/traffic_optimization/out/e1_163.xml"/>
    <inductionLoop id="e1_164" lane="E56_0" pos="335.04" period="300.00" file="C:/Users/Lucas/Lucas/traffic_optimization/traffic_optimization/out/e1_164.xml"/>
    <inductionLoop id="e1_165" lane="E235_3" pos="452.37" period="300.00" file="C:/Users/Lucas/Lucas/traffic_optimization/traffic_optimization/out/e1_165.xml"/>
    <inductionLoop id="e1_166" lane="E235_2" pos="452.86" period="300.00" file="C:/Users/Lucas/Lucas/traffic_optimization/traffic_optimization/out/e1_166.xml"/>
    <inductionLoop id="e1_167" lane="E235_1" pos="452.66" period="300.00" file="C:/Users/Lucas/Lucas/traffic_optimization/traffic_optimization/out/e1_167.xml"/>
    <inductionLoop id="e1_168" lane="E235_0" pos="452.90" period="300.00" file="C:/Users/Lucas/Lucas/traffic_optimization/traffic_optimization/out/e1_168.xml"/>
    <inductionLoop id="e1_169" lane="-E177_3" pos="339.66" period="300.00" file="C:/Users/Lucas/Lucas/traffic_optimization/traffic_optimization/out/e1_169.xml"/>
    <inductionLoop id="e1_17" lane="-E121_1" pos="650.11" period="300.00" file="C:/Users/Lucas/Lucas/traffic_optimization/traffic_optimization/out/e1_17.xml"/>
    <inductionLoop id="e1_170" lane="-E177_2" pos="340.58" period="300.00" file="C:/Users/Lucas/Lucas/traffic_optimization/traffic_optimization/out/e1_170.xml"/>
    <inductionLoop id="e1_171" lane="-E177_1" pos="341.03" period="300.00" file="C:/Users/Lucas/Lucas/traffic_optimization/traffic_optimization/out/e1_171.xml"/>
    <inductionLoop id="e1_172" lane="-E177_0" pos="341.06" period="300.00" file="C:/Users/Lucas/Lucas/traffic_optimization/traffic_optimization/out/e1_172.xml"/>
    <inductionLoop id="e1_173" lane="-E235_3" pos="453.20" period="300.00" file="C:/Users/Lucas/Lucas/traffic_optimization/traffic_optimization/out/e1_173.xml"/>
    <inductionLoop id="e1_174" lane="-E235_2" pos="453.08" period="300.00" file="C:/Users/Lucas/Lucas/traffic_optimization/traffic_optimization/out/e1_174.xml"/>
    <inductionLoop id="e1_175" lane="-E235_1" pos="453.23" period="300.00" file="C:/Users/Lucas/Lucas/traffic_optimization/traffic_optimization/out/e1_175.xml"/>
    <inductionLoop id="e1_176" lane="-E235_0" pos="453.18" period="300.00" file="C:/Users/Lucas/Lucas/traffic_optimization/traffic_optimization/out/e1_176.xml"/>
    <inductionLoop id="e1_177" lane="E74_4" pos="327.14" period="300.00" file="C:/Users/Lucas/Lucas/traffic_optimization/traffic_optimization/out/e1_177.xml"/>
    <inductionLoop id="e1_178" lane="E74_3" pos="327.67" period="300.00" file="C:/Users/Lucas/Lucas/traffic_optimization/traffic_optimization/out/e1_178.xml"/>
    <inductionLoop id="e1_179" lane="E74_2" pos="327.69" period="300.00" file="C:/Users/Lucas/Lucas/traffic_optimization/traffic_optimization/out/e1_179.xml"/>
    <inductionLoop id="e1_18" lane="-E37_3" pos="430.58" period="300.00" file="C:/Users/Lucas/Lucas/traffic_optimization/traffic_optimization/out/e1_18.xml"/>
    <inductionLoop id="e1_180" lane="E74_1" pos="328.15" period="300.00" file="C:/Users/Lucas/Lucas/traffic_optimization/traffic_optimization/out/e1_180.xml"/>
    <inductionLoop id="e1_181" lane="E74_0" pos="329.02" period="300.00" file="C:/Users/Lucas/Lucas/traffic_optimization/traffic_optimization/out/e1_181.xml"/>
    <inductionLoop id="e1_182" lane="-E201_3" pos="260.44" period="300.00" file="C:/Users/Lucas/Lucas/traffic_optimization/traffic_optimization/out/e1_182.xml"/>
    <inductionLoop id="e1_183" lane="-E201_2" pos="260.03" period="300.00" file="C:/Users/Lucas/Lucas/traffic_optimization/traffic_optimization/out/e1_183.xml"/>
    <inductionLoop id="e1_184" lane="-E201_1" pos="260.14" period="300.00" file="C:/Users/Lucas/Lucas/traffic_optimization/traffic_optimization/out/e1_184.xml"/>
    <inductionLoop id="e1_185" lane="-E201_0" pos="260.07" period="300.00" file="C:/Users/Lucas/Lucas/traffic_optimization/traffic_optimization/out/e1_185.xml"/>
    <inductionLoop id="e1_186" lane="-E260_2" pos="224.34" period="300.00" file="C:/Users/Lucas/Lucas/traffic_optimization/traffic_optimization/out/e1_186.xml"/>
    <inductionLoop id="e1_187" lane="-E260_1" pos="224.05" period="300.00" file="C:/Users/Lucas/Lucas/traffic_optimization/traffic_optimization/out/e1_187.xml"/>
    <inductionLoop id="e1_188" lane="-E260_0" pos="224.68" period="300.00" file="C:/Users/Lucas/Lucas/traffic_optimization/traffic_optimization/out/e1_188.xml"/>
    <inductionLoop id="e1_189" lane="-E305_3" pos="193.50" period="300.00" file="C:/Users/Lucas/Lucas/traffic_optimization/traffic_optimization/out/e1_189.xml"/>
    <inductionLoop id="e1_19" lane="-E37_2" pos="431.36" period="300.00" file="C:/Users/Lucas/Lucas/traffic_optimization/traffic_optimization/out/e1_19.xml"/>
    <inductionLoop id="e1_190" lane="-E305_2" pos="193.42" period="300.00" file="C:/Users/Lucas/Lucas/traffic_optimization/traffic_optimization/out/e1_190.xml"/>
    <inductionLoop id="e1_191" lane="-E305_1" pos="194.19" period="300.00" file="C:/Users/Lucas/Lucas/traffic_optimization/traffic_optimization/out/e1_191.xml"/>
    <inductionLoop id="e1_192" lane="-E305_0" pos="193.89" period="300.00" file="C:/Users/Lucas/Lucas/traffic_optimization/traffic_optimization/out/e1_192.xml"/>
    <inductionLoop id="e1_193" lane="E339_2" pos="256.84" period="300.00" file="C:/Users/Lucas/Lucas/traffic_optimization/traffic_optimization/out/e1_193.xml"/>
    <inductionLoop id="e1_194" lane="E339_1" pos="256.44" period="300.00" file="C:/Users/Lucas/Lucas/traffic_optimization/traffic_optimization/out/e1_194.xml"/>
    <inductionLoop id="e1_195" lane="E339_0" pos="256.24" period="300.00" file="C:/Users/Lucas/Lucas/traffic_optimization/traffic_optimization/out/e1_195.xml"/>
    <inductionLoop id="e1_196" lane="E177_3" pos="340.08" period="300.00" file="C:/Users/Lucas/Lucas/traffic_optimization/traffic_optimization/out/e1_196.xml"/>
    <inductionLoop id="e1_197" lane="E177_2" pos="340.26" period="300.00" file="C:/Users/Lucas/Lucas/traffic_optimization/traffic_optimization/out/e1_197.xml"/>
    <inductionLoop id="e1_198" lane="E177_1" pos="340.44" period="300.00" file="C:/Users/Lucas/Lucas/traffic_optimization/traffic_optimization/out/e1_198.xml"/>
    <inductionLoop id="e1_199" lane="E177_0" pos="339.82" period="300.00" file="C:/Users/Lucas/Lucas/traffic_optimization/traffic_optimization/out/e1_199.xml"/>
    <inductionLoop id="e1_2" lane="-E30_0" pos="652.64" period="300.00" file="C:/Users/Lucas/Lucas/traffic_optimization/traffic_optimization/out/e1_2.xml"/>
    <inductionLoop id="e1_20" lane="-E37_1" pos="431.22" period="300.00" file="C:/Users/Lucas/Lucas/traffic_optimization/traffic_optimization/out/e1_20.xml"/>
    <inductionLoop id="e1_200" lane="-E228_1" pos="415.69" period="300.00" file="C:/Users/Lucas/Lucas/traffic_optimization/traffic_optimization/out/e1_200.xml"/>
    <inductionLoop id="e1_201" lane="-E228_0" pos="416.72" period="300.00" file="C:/Users/Lucas/Lucas/traffic_optimization/traffic_optimization/out/e1_201.xml"/>
    <inductionLoop id="e1_202" lane="E201_3" pos="262.95" period="300.00" file="C:/Users/Lucas/Lucas/traffic_optimization/traffic_optimization/out/e1_202.xml"/>
    <inductionLoop id="e1_203" lane="E201_2" pos="262.08" period="300.00" file="C:/Users/Lucas/Lucas/traffic_optimization/traffic_optimization/out/e1_203.xml"/>
    <inductionLoop id="e1_204" lane="E201_1" pos="262.05" period="300.00" file="C:/Users/Lucas/Lucas/traffic_optimization/traffic_optimization/out/e1_204.xml"/>
    <inductionLoop id="e1_205" lane="E201_0" pos="262.08" period="300.00" file="C:/Users/Lucas/Lucas/traffic_optimization/traffic_optimization/out/e1_205.xml"/>
    <inductionLoop id="e1_206" lane="E200_2" pos="283.76" period="300.00" file="C:/Users/Lucas/Lucas/traffic_optimization/traffic_optimization/out/e1_206.xml"/>
    <inductionLoop id="e1_207" lane="E200_1" pos="283.64" period="300.00" file="C:/Users/Lucas/Lucas/traffic_optimization/traffic_optimization/out/e1_207.xml"/>
    <inductionLoop id="e1_208" lane="E200_0" pos="283.26" period="300.00" file="C:/Users/Lucas/Lucas/traffic_optimization/traffic_optimization/out/e1_208.xml"/>
    <inductionLoop id="e1_209" lane="-E202_3" pos="265.58" period="300.00" file="C:/Users/Lucas/Lucas/traffic_optimization/traffic_optimization/out/e1_209.xml"/>
    <inductionLoop id="e1_21" lane="-E37_0" pos="431.01" period="300.00" file="C:/Users/Lucas/Lucas/traffic_optimization/traffic_optimization/out/e1_21.xml"/>
    <inductionLoop id="e1_210" lane="-E202_2" pos="266.06" period="300.00" file="C:/Users/Lucas/Lucas/traffic_optimization/traffic_optimization/out/e1_210.xml"/>
    <inductionLoop id="e1_211" lane="-E202_1" pos="266.48" period="300.00" file="C:/Users/Lucas/Lucas/traffic_optimization/traffic_optimization/out/e1_211.xml"/>
    <inductionLoop id="e1_212" lane="-E202_0" pos="267.20" period="300.00" file="C:/Users/Lucas/Lucas/traffic_optimization/traffic_optimization/out/e1_212.xml"/>
    <inductionLoop id="e1_213" lane="E205_0" pos="832.84" period="300.00" file="C:/Users/Lucas/Lucas/traffic_optimization/traffic_optimization/out/e1_213.xml"/>
    <inductionLoop id="e1_214" lane="E202_3" pos="266.18" period="300.00" file="C:/Users/Lucas/Lucas/traffic_optimization/traffic_optimization/out/e1_214.xml"/>
    <inductionLoop id="e1_215" lane="E205_1" pos="832.43" period="300.00" file="C:/Users/Lucas/Lucas/traffic_optimization/traffic_optimization/out/e1_215.xml"/>
    <inductionLoop id="e1_216" lane="E202_2" pos="265.93" period="300.00" file="C:/Users/Lucas/Lucas/traffic_optimization/traffic_optimization/out/e1_216.xml"/>
    <inductionLoop id="e1_217" lane="E202_1" pos="265.58" period="300.00" file="C:/Users/Lucas/Lucas/traffic_optimization/traffic_optimization/out/e1_217.xml"/>
    <inductionLoop id="e1_218" lane="E202_0" pos="266.02" period="300.00" file="C:/Users/Lucas/Lucas/traffic_optimization/traffic_optimization/out/e1_218.xml"/>
    <inductionLoop id="e1_219" lane="E199_1" pos="272.38" period="300.00" file="C:/Users/Lucas/Lucas/traffic_optimization/traffic_optimization/out/e1_219.xml"/>
    <inductionLoop id="e1_22" lane="E51_2" pos="332.37" period="300.00" file="C:/Users/Lucas/Lucas/traffic_optimization/traffic_optimization/out/e1_22.xml"/>
    <inductionLoop id="e1_220" lane="E199_0" pos="271.64" period="300.00" file="C:/Users/Lucas/Lucas/traffic_optimization/traffic_optimization/out/e1_220.xml"/>
    <inductionLoop id="e1_221" lane="-E242_3" pos="143.57" period="300.00" file="C:/Users/Lucas/Lucas/traffic_optimization/traffic_optimization/out/e1_221.xml"/>
    <inductionLoop id="e1_222" lane="-E242_2" pos="143.98" period="300.00" file="C:/Users/Lucas/Lucas/traffic_optimization/traffic_optimization/out/e1_222.xml"/>
    <inductionLoop id="e1_223" lane="-E242_1" pos="144.49" period="300.00" file="C:/Users/Lucas/Lucas/traffic_optimization/traffic_optimization/out/e1_223.xml"/>
    <inductionLoop id="e1_224" lane="-E242_0" pos="144.35" period="300.00" file="C:/Users/Lucas/Lucas/traffic_optimization/traffic_optimization/out/e1_224.xml"/>
    <inductionLoop id="e1_23" lane="E51_1" pos="331.95" period="300.00" file="C:/Users/Lucas/Lucas/traffic_optimization/traffic_optimization/out/e1_23.xml"/>
    <inductionLoop id="e1_24" lane="E51_0" pos="332.20" period="300.00" file="C:/Users/Lucas/Lucas/traffic_optimization/traffic_optimization/out/e1_24.xml"/>
    <inductionLoop id="e1_25" lane="-E48_0" pos="663.38" period="300.00" file="C:/Users/Lucas/Lucas/traffic_optimization/traffic_optimization/out/e1_25.xml"/>
    <inductionLoop id="e1_26" lane="-E48_1" pos="662.86" period="300.00" file="C:/Users/Lucas/Lucas/traffic_optimization/traffic_optimization/out/e1_26.xml"/>
    <inductionLoop id="e1_27" lane="-E48_2" pos="663.41" period="300.00" file="C:/Users/Lucas/Lucas/traffic_optimization/traffic_optimization/out/e1_27.xml"/>
    <inductionLoop id="e1_28" lane="-E48_3" pos="663.68" period="300.00" file="C:/Users/Lucas/Lucas/traffic_optimization/traffic_optimization/out/e1_28.xml"/>
    <inductionLoop id="e1_29" lane="-E65_1" pos="620.09" period="300.00" file="C:/Users/Lucas/Lucas/traffic_optimization/traffic_optimization/out/e1_29.xml"/>
    <inductionLoop id="e1_3" lane="-E30_3" pos="652.24" period="300.00" file="C:/Users/Lucas/Lucas/traffic_optimization/traffic_optimization/out/e1_3.xml"/>
    <inductionLoop id="e1_30" lane="-E65_0" pos="620.30" period="300.00" file="C:/Users/Lucas/Lucas/traffic_optimization/traffic_optimization/out/e1_30.xml"/>
    <inductionLoop id="e1_31" lane="E37_3" pos="431.22" period="300.00" file="C:/Users/Lucas/Lucas/traffic_optimization/traffic_optimization/out/e1_31.xml"/>
    <inductionLoop id="e1_32" lane="E37_2" pos="431.38" period="300.00" file="C:/Users/Lucas/Lucas/traffic_optimization/traffic_optimization/out/e1_32.xml"/>
    <inductionLoop id="e1_33" lane="E37_1" pos="430.90" period="300.00" file="C:/Users/Lucas/Lucas/traffic_optimization/traffic_optimization/out/e1_33.xml"/>
    <inductionLoop id="e1_34" lane="E37_0" pos="432.29" period="300.00" file="C:/Users/Lucas/Lucas/traffic_optimization/traffic_optimization/out/e1_34.xml"/>
    <inductionLoop id="e1_35" lane="E38_2" pos="576.51" period="300.00" file="C:/Users/Lucas/Lucas/traffic_optimization/traffic_optimization/out/e1_35.xml"/>
    <inductionLoop id="e1_36" lane="E38_1" pos="576.54" period="300.00" file="C:/Users/Lucas/Lucas/traffic_optimization/traffic_optimization/out/e1_36.xml"/>
    <inductionLoop id="e1_37" lane="-E43_3" pos="322.71" period="300.00" file="C:/Users/Lucas/Lucas/traffic_optimization/traffic_optimization/out/e1_37.xml"/>
    <inductionLoop id="e1_38" lane="E38_0" pos="577.13" period="300.00" file="C:/Users/Lucas/Lucas/traffic_optimization/traffic_optimization/out/e1_38.xml"/>
    <inductionLoop id="e1_39" lane="-E43_2" pos="322.96" period="300.00" file="C:/Users/Lucas/Lucas/traffic_optimization/traffic_optimization/out/e1_39.xml"/>
    <inductionLoop id="e1_4" lane="E28_0" pos="330.54" period="300.00" file="C:/Users/Lucas/Lucas/traffic_optimization/traffic_optimization/out/e1_4.xml"/>
    <inductionLoop id="e1_40" lane="-E43_1" pos="322.92" period="300.00" file="C:/Users/Lucas/Lucas/traffic_optimization/traffic_optimization/out/e1_40.xml"/>
    <inductionLoop id="e1_41" lane="-E43_0" pos="322.82" period="300.00" file="C:/Users/Lucas/Lucas/traffic_optimization/traffic_optimization/out/e1_41.xml"/>
    <inductionLoop id="e1_42" lane="-E1_0" pos="240.22" period="300.00" file="C:/Users/Lucas/Lucas/traffic_optimization/traffic_optimization/out/e1_42.xml"/>
    <inductionLoop id="e1_43" lane="-E9_0" pos="145.05" period="300.00" file="C:/Users/Lucas/Lucas/traffic_optimization/traffic_optimization/out/e1_43.xml"/>
    <inductionLoop id="e1_44" lane="-E1_1" pos="240.11" period="300.00" file="C:/Users/Lucas/Lucas/traffic_optimization/traffic_optimization/out/e1_44.xml"/>
    <inductionLoop id="e1_45" lane="-E9_1" pos="145.06" period="300.00" file="C:/Users/Lucas/Lucas/traffic_optimization/traffic_optimization/out/e1_45.xml"/>
    <inductionLoop id="e1_46" lane="-E9_2" pos="144.81" period="300.00" file="C:/Users/Lucas/Lucas/traffic_optimization/traffic_optimization/out/e1_46.xml"/>
    <inductionLoop id="e1_47" lane="-E9_3" pos="144.53" period="300.00" file="C:/Users/Lucas/Lucas/traffic_optimization/traffic_optimization/out/e1_47.xml"/>
    <inductionLoop id="e1_48" lane="E44_3" pos="262.63" period="300.00" file="C:/Users/Lucas/Lucas/traffic_optimization/traffic_optimization/out/e1_48.xml"/>
    <inductionLoop id="e1_49" lane="E44_2" pos="262.67" period="300.00" file="C:/Users/Lucas/Lucas/traffic_optimization/traffic_optimization/out/e1_49.xml"/>
    <inductionLoop id="e1_5" lane="E28_1" pos="330.16" period="300.00" file="C:/Users/Lucas/Lucas/traffic_optimization/traffic_optimization/out/e1_5.xml"/>
    <inductionLoop id="e1_50" lane="E44_1" pos="262.66" period="300.00" file="C:/Users/Lucas/Lucas/traffic_optimization/traffic_optimization/out/e1_50.xml"/>
    <inductionLoop id="e1_51" lane="E44_0" pos="263.20" period="300.00" file="C:/Users/Lucas/Lucas/traffic_optimization/traffic_optimization/out/e1_51.xml"/>
    <inductionLoop id="e1_52" lane="E171_2" pos="390.19" period="300.00" file="C:/Users/Lucas/Lucas/traffic_optimization/traffic_optimization/out/e1_52.xml"/>
    <inductionLoop id="e1_53" lane="E171_1" pos="390.95" period="300.00" file="C:/Users/Lucas/Lucas/traffic_optimization/traffic_optimization/out/e1_53.xml"/>
    <inductionLoop id="e1_54" lane="E171_0" pos="389.41" period="300.00" file="C:/Users/Lucas/Lucas/traffic_optimization/traffic_optimization/out/e1_54.xml"/>
    <inductionLoop id="e1_55" lane="-E172_3" pos="919.23" period="300.00" file="C:/Users/Lucas/Lucas/traffic_optimization/traffic_optimization/out/e1_55.xml"/>
    <inductionLoop id="e1_56" lane="-E172_2" pos="919.00" period="300.00" file="C:/Users/Lucas/Lucas/traffic_optimization/traffic_optimization/out/e1_56.xml"/>
    <inductionLoop id="e1_57" lane="-E172_1" pos="919.08" period="300.00" file="C:/Users/Lucas/Lucas/traffic_optimization/traffic_optimization/out/e1_57.xml"/>
    <inductionLoop id="e1_58" lane="-E172_0" pos="919.28" period="300.00" file="C:/Users/Lucas/Lucas/traffic_optimization/traffic_optimization/out/e1_58.xml"/>
    <inductionLoop id="e1_59" lane="E183_2" pos="400.28" period="300.00" file="C:/Users/Lucas/Lucas/traffic_optimization/traffic_optimization/out/e1_59.xml"/>
    <inductionLoop id="e1_6" lane="E28_2" pos="330.20" period="300.00" file="C:/Users/Lucas/Lucas/traffic_optimization/traffic_optimization/out/e1_6.xml"/>
    <inductionLoop id="e1_60" lane="E183_1" pos="399.92" period="300.00" file="C:/Users/Lucas/Lucas/traffic_optimization/traffic_optimization/out/e1_60.xml"/>
    <inductionLoop id="e1_61" lane="E183_0" pos="399.88" period="300.00" file="C:/Users/Lucas/Lucas/traffic_optimization/traffic_optimization/out/e1_61.xml"/>
    <inductionLoop id="e1_62" lane="E170_3" pos="351.28" period="300.00" file="C:/Users/Lucas/Lucas/traffic_optimization/traffic_optimization/out/e1_62.xml"/>