<?xml version="1.0" encoding="UTF-8"?>

<!-- generated on 2025-09-01 18:14:19 by Eclipse SUMO netedit Version 1.19.0
<configuration xmlns:xsi="http://www.w3.org/2001/XMLSchema-instance" xsi:noNamespaceSchemaLocation="http://sumo.dlr.de/xsd/neteditConfiguration.xsd">

    <input>
        <sumo-net-file value="C:\Users\647va\.vscode\traffic_optimization\traffic_optimization-3\NETWORKS\Hwy7_404_network\Hwy7_404.net.xml"/>
    </input>

    <output>
        <output-file value="C:\Users\647va\.vscode\traffic_optimization\traffic_optimization-3\NETWORKS\Hwy7_404_network\Hwy7_404.net.xml"/>
    </output>

    <processing>
        <geometry.min-radius.fix.railways value="false"/>
        <geometry.max-grade.fix value="false"/>
        <offset.disable-normalization value="true"/>
        <lefthand value="0"/>
    </processing>

    <junctions>
        <no-turnarounds value="true"/>
        <junctions.corner-detail value="5"/>
        <junctions.limit-turn-speed value="5.50"/>
        <rectangular-lane-cut value="0"/>
    </junctions>

    <pedestrian>
        <walkingareas value="0"/>
    </pedestrian>

</configuration>
-->

<net version="1.16" junctionCornerDetail="5" limitTurnSpeed="5.50" xmlns:xsi="http://www.w3.org/2001/XMLSchema-instance" xsi:noNamespaceSchemaLocation="http://sumo.dlr.de/xsd/net_file.xsd">

    <location netOffset="0.00,0.00" convBoundary="-3904.76,-2415.15,3879.47,2372.94" origBoundary="-10000000000.00,-10000000000.00,10000000000.00,10000000000.00" projParameter="!"/>

    <edge id=":J1_0" function="internal">
        <lane id=":J1_0_0" index="0" speed="13.89" length="14.40" shape="-3020.04,481.80 -3033.78,477.48"/>
    </edge>
    <edge id=":J1_1" function="internal">
        <lane id=":J1_1_0" index="0" speed="8.06" length="4.04" shape="-3020.04,481.80 -3023.53,480.13 -3023.64,480.00"/>
    </edge>
    <edge id=":J1_6" function="internal">
        <lane id=":J1_6_0" index="0" speed="8.06" length="10.18" shape="-3023.64,480.00 -3025.65,477.72 -3026.43,474.59 -3025.85,470.72"/>
    </edge>
    <edge id=":J1_2" function="internal">
        <lane id=":J1_2_0" index="0" speed="6.57" length="9.12" shape="-3022.78,471.63 -3023.16,474.12 -3022.67,476.13 -3021.31,477.68 -3019.08,478.75"/>
    </edge>
    <edge id=":J1_3" function="internal">
        <lane id=":J1_3_0" index="0" speed="7.97" length="14.26" shape="-3022.78,471.63 -3024.42,475.19 -3026.80,477.35 -3029.92,478.11 -3033.78,477.48"/>
    </edge>
    <edge id=":J1_4" function="internal">
        <lane id=":J1_4_0" index="0" speed="6.47" length="9.03" shape="-3032.82,474.43 -3030.37,474.83 -3028.39,474.35 -3026.89,472.98 -3025.85,470.72"/>
    </edge>
    <edge id=":J1_5" function="internal">
        <lane id=":J1_5_0" index="0" speed="13.89" length="14.40" shape="-3032.82,474.43 -3019.08,478.75"/>
    </edge>
    <edge id=":J101_0" function="internal">
        <lane id=":J101_0_0" index="0" speed="7.34" length="9.87" shape="-829.23,-1459.78 -831.65,-1459.81 -833.72,-1459.00 -835.44,-1457.35 -836.80,-1454.86"/>
    </edge>
    <edge id=":J101_1" function="internal">
        <lane id=":J101_1_0" index="0" speed="13.89" length="14.31" shape="-829.23,-1459.78 -832.81,-1460.45 -836.24,-1461.20 -839.65,-1462.04 -843.17,-1462.98"/>
    </edge>
    <edge id=":J101_2" function="internal">
        <lane id=":J101_2_0" index="0" speed="13.89" length="13.98" shape="-842.30,-1466.09 -838.84,-1465.15 -835.54,-1464.33 -832.21,-1463.62 -828.68,-1462.96"/>
    </edge>
    <edge id=":J101_3" function="internal">
        <lane id=":J101_3_0" index="0" speed="7.82" length="4.08" shape="-842.30,-1466.09 -838.57,-1464.43"/>
    </edge>
    <edge id=":J101_6" function="internal">
        <lane id=":J101_6_0" index="0" speed="7.82" length="10.57" shape="-838.57,-1464.43 -836.41,-1462.01 -835.82,-1458.82 -836.80,-1454.86"/>
    </edge>
    <edge id=":J101_4" function="internal">
        <lane id=":J101_4_0" index="0" speed="6.27" length="9.04" shape="-839.76,-1456.06 -839.16,-1458.51 -839.53,-1460.48 -840.86,-1461.97 -843.17,-1462.98"/>
    </edge>
    <edge id=":J101_5" function="internal">
        <lane id=":J101_5_0" index="0" speed="8.73" length="14.27" shape="-839.76,-1456.06 -837.82,-1459.58 -835.33,-1461.90 -832.28,-1463.03 -828.68,-1462.96"/>
    </edge>
    <edge id=":J102_0" function="internal">
        <lane id=":J102_0_0" index="0" speed="7.05" length="11.78" shape="2203.43,-168.52 2199.54,-169.34 2196.62,-169.11 2194.66,-167.82 2193.66,-165.49"/>
    </edge>
    <edge id=":J102_1" function="internal">
        <lane id=":J102_1_0" index="0" speed="13.89" length="34.11" shape="2203.43,-168.52 2170.85,-178.80"/>
        <lane id=":J102_1_1" index="1" speed="13.89" length="34.11" shape="2204.37,-171.58 2171.84,-181.85"/>
        <lane id=":J102_1_2" index="2" speed="13.89" length="34.11" shape="2205.31,-174.64 2172.82,-184.89"/>
    </edge>
    <edge id=":J102_4" function="internal">
        <lane id=":J102_4_0" index="0" speed="13.41" length="37.92" shape="2206.25,-177.70 2195.40,-182.26 2188.13,-188.17 2184.43,-195.44 2184.31,-204.07"/>
        <lane id=":J102_4_1" index="1" speed="12.98" length="35.44" shape="2206.25,-177.70 2196.75,-181.87 2190.46,-187.56 2187.36,-194.77 2187.46,-203.51"/>
        <lane id=":J102_4_2" index="2" speed="12.54" length="33.03" shape="2206.25,-177.70 2198.10,-181.48 2192.79,-186.94 2190.29,-194.10 2190.61,-202.94"/>
    </edge>
    <edge id=":J102_7" function="internal">
        <lane id=":J102_7_0" index="0" speed="7.71" length="11.89" shape="2206.36,-200.13 2206.01,-196.27 2206.50,-193.28 2207.83,-191.17 2210.00,-189.94"/>
        <lane id=":J102_7_1" index="1" speed="8.47" length="14.54" shape="2206.36,-200.13 2205.74,-194.89 2205.98,-190.93 2207.09,-188.26 2209.06,-186.88"/>
        <lane id=":J102_7_2" index="2" speed="9.19" length="17.30" shape="2206.36,-200.13 2205.47,-193.50 2205.46,-188.58 2206.35,-185.35 2208.12,-183.82"/>
    </edge>
    <edge id=":J102_10" function="internal">
        <lane id=":J102_10_0" index="0" speed="13.89" length="36.50" shape="2203.21,-200.69 2200.61,-189.00 2197.89,-180.05 2195.45,-172.62 2193.66,-165.49"/>
        <lane id=":J102_10_1" index="1" speed="13.89" length="36.50" shape="2200.06,-201.25 2197.46,-189.57 2194.74,-180.61 2192.30,-173.18 2190.51,-166.05"/>
    </edge>
    <edge id=":J102_12" function="internal">
        <lane id=":J102_12_0" index="0" speed="12.00" length="7.38" shape="2196.91,-201.82 2193.76,-195.14"/>
        <lane id=":J102_12_1" index="1" speed="11.60" length="13.53" shape="2196.91,-201.82 2193.52,-194.62 2189.73,-190.53"/>
        <lane id=":J102_12_2" index="2" speed="11.82" length="10.94" shape="2196.91,-201.82 2194.12,-191.67 2193.87,-191.33"/>
    </edge>
    <edge id=":J102_28" function="internal">
        <lane id=":J102_28_0" index="0" speed="12.00" length="29.28" shape="2193.76,-195.14 2193.30,-194.17 2186.28,-186.06 2178.06,-180.08 2170.85,-178.80"/>
    </edge>
    <edge id=":J102_29" function="internal">
        <lane id=":J102_29_0" index="0" speed="11.60" length="20.68" shape="2189.73,-190.53 2186.96,-187.53 2179.10,-182.58 2171.84,-181.85"/>
    </edge>
    <edge id=":J102_30" function="internal">
        <lane id=":J102_30_0" index="0" speed="11.82" length="24.59" shape="2193.87,-191.33 2189.62,-185.43 2182.74,-183.15 2172.82,-184.89"/>
    </edge>
    <edge id=":J102_15" function="internal">
        <lane id=":J102_15_0" index="0" speed="6.23" length="9.05" shape="2177.73,-200.12 2180.22,-199.69 2182.15,-200.21 2183.51,-201.67 2184.31,-204.07"/>
    </edge>
    <edge id=":J102_16" function="internal">
        <lane id=":J102_16_0" index="0" speed="13.89" length="33.91" shape="2177.73,-200.12 2210.00,-189.94"/>
        <lane id=":J102_16_1" index="1" speed="13.89" length="33.91" shape="2176.75,-197.07 2209.06,-186.88"/>
        <lane id=":J102_16_2" index="2" speed="13.89" length="33.91" shape="2175.77,-194.03 2208.12,-183.82"/>
        <lane id=":J102_16_3" index="3" speed="13.89" length="33.91" shape="2174.78,-190.98 2207.18,-180.76"/>
    </edge>
    <edge id=":J102_20" function="internal">
        <lane id=":J102_20_0" index="0" speed="12.55" length="32.70" shape="2174.78,-190.98 2182.92,-187.11 2188.26,-181.67 2190.79,-174.65 2190.51,-166.05"/>
    </edge>
    <edge id=":J102_21" function="internal">
        <lane id=":J102_21_0" index="0" speed="8.37" length="14.02" shape="2177.91,-168.31 2177.99,-171.88 2176.84,-174.81 2174.46,-177.12 2170.85,-178.80"/>
    </edge>
    <edge id=":J102_22" function="internal">
        <lane id=":J102_22_0" index="0" speed="13.89" length="36.38" shape="2177.91,-168.31 2184.31,-204.07"/>
        <lane id=":J102_22_1" index="1" speed="13.89" length="36.38" shape="2181.06,-167.75 2187.46,-203.51"/>
        <lane id=":J102_22_2" index="2" speed="13.89" length="36.38" shape="2184.21,-167.18 2190.61,-202.94"/>
        <lane id=":J102_22_3" index="3" speed="13.89" length="36.38" shape="2184.21,-167.18 2186.61,-177.73 2188.99,-184.78 2191.36,-191.83 2193.76,-202.38"/>
    </edge>
    <edge id=":J102_26" function="internal">
        <lane id=":J102_26_0" index="0" speed="11.19" length="14.32" shape="2184.21,-167.18 2187.41,-173.84 2192.41,-178.65"/>
        <lane id=":J102_26_1" index="1" speed="10.32" length="7.45" shape="2187.36,-166.62 2189.97,-172.53 2190.66,-173.24"/>
    </edge>
    <edge id=":J102_31" function="internal">
        <lane id=":J102_31_0" index="0" speed="11.19" length="17.07" shape="2192.41,-178.65 2193.57,-179.76 2201.02,-183.55 2208.12,-183.82"/>
    </edge>
    <edge id=":J102_32" function="internal">
        <lane id=":J102_32_0" index="0" speed="10.32" length="19.09" shape="2190.66,-173.24 2194.90,-177.58 2201.01,-180.68 2207.18,-180.76"/>
    </edge>
    <edge id=":J103_0" function="internal">
        <lane id=":J103_0_0" index="0" speed="6.25" length="9.04" shape="2290.24,-636.79 2287.74,-637.19 2285.82,-636.65 2284.46,-635.19 2283.67,-632.79"/>
    </edge>
    <edge id=":J103_1" function="internal">
        <lane id=":J103_1_0" index="0" speed="13.89" length="33.77" shape="2290.24,-636.79 2258.03,-647.05"/>
        <lane id=":J103_1_1" index="1" speed="13.89" length="33.77" shape="2291.18,-639.85 2259.03,-650.09"/>
    </edge>
    <edge id=":J103_3" function="internal">
        <lane id=":J103_3_0" index="0" speed="12.00" length="29.80" shape="2291.18,-639.85 2281.99,-643.55 2275.73,-648.01 2272.41,-653.24 2272.02,-659.25"/>
        <lane id=":J103_3_1" index="1" speed="11.49" length="27.27" shape="2291.18,-639.85 2283.34,-643.15 2278.06,-647.40 2275.34,-652.59 2275.18,-658.71"/>
    </edge>
    <edge id=":J103_5" function="internal">
        <lane id=":J103_5_0" index="0" speed="7.40" length="10.78" shape="2287.80,-656.58 2287.85,-654.11 2288.91,-652.03 2290.96,-650.35 2294.02,-649.05"/>
    </edge>
    <edge id=":J103_6" function="internal">
        <lane id=":J103_6_0" index="0" speed="13.89" length="24.10" shape="2287.80,-656.58 2283.67,-632.79"/>
        <lane id=":J103_6_1" index="1" speed="13.89" length="24.10" shape="2284.65,-657.11 2280.52,-633.36"/>
        <lane id=":J103_6_2" index="2" speed="13.89" length="24.10" shape="2281.49,-657.65 2277.36,-633.92"/>
        <lane id=":J103_6_3" index="3" speed="13.89" length="24.10" shape="2278.34,-658.18 2274.21,-634.48"/>
    </edge>
    <edge id=":J103_10" function="internal">
        <lane id=":J103_10_0" index="0" speed="9.86" length="5.81" shape="2278.34,-658.18 2276.33,-652.73"/>
    </edge>
    <edge id=":J103_20" function="internal">
        <lane id=":J103_20_0" index="0" speed="9.86" length="18.80" shape="2276.33,-652.73 2276.26,-652.56 2272.35,-649.33 2266.61,-648.51 2259.03,-650.09"/>
    </edge>
    <edge id=":J103_11" function="internal">
        <lane id=":J103_11_0" index="0" speed="13.89" length="33.95" shape="2260.02,-653.13 2265.32,-652.46 2273.43,-652.17 2283.33,-651.34 2294.02,-649.05"/>
        <lane id=":J103_11_1" index="1" speed="13.89" length="33.95" shape="2260.02,-653.13 2265.18,-651.98 2272.96,-650.64 2282.54,-648.76 2293.08,-645.99"/>
        <lane id=":J103_11_2" index="2" speed="13.89" length="33.95" shape="2260.02,-653.13 2292.13,-642.94"/>
    </edge>
    <edge id=":J103_14" function="internal">
        <lane id=":J103_14_0" index="0" speed="11.23" length="25.89" shape="2260.02,-653.13 2267.12,-649.94 2271.85,-645.76 2274.21,-640.61 2274.21,-634.48"/>
    </edge>
    <edge id=":J103_15" function="internal">
        <lane id=":J103_15_0" index="0" speed="7.79" length="11.96" shape="2261.61,-636.73 2261.97,-640.62 2261.49,-643.63 2260.18,-645.78 2258.03,-647.05"/>
    </edge>
    <edge id=":J103_16" function="internal">
        <lane id=":J103_16_0" index="0" speed="13.89" length="24.26" shape="2261.61,-636.73 2263.36,-643.68 2265.28,-648.25 2267.19,-652.83 2268.87,-659.78"/>
        <lane id=":J103_16_1" index="1" speed="13.89" length="24.26" shape="2264.76,-636.17 2266.51,-643.12 2268.44,-647.70 2270.34,-652.28 2272.02,-659.25"/>
        <lane id=":J103_16_2" index="2" speed="13.89" length="24.26" shape="2267.91,-635.61 2269.66,-642.57 2271.59,-647.15 2273.49,-651.74 2275.18,-658.71"/>
    </edge>
    <edge id=":J103_19" function="internal">
        <lane id=":J103_19_0" index="0" speed="10.24" length="3.51" shape="2271.06,-635.04 2272.36,-638.31"/>
    </edge>
    <edge id=":J103_21" function="internal">
        <lane id=":J103_21_0" index="0" speed="10.24" length="22.64" shape="2272.36,-638.31 2273.30,-640.66 2277.55,-643.84 2283.83,-644.60 2292.13,-642.94"/>
    </edge>
    <edge id=":J104_0" function="internal">
        <lane id=":J104_0_0" index="0" speed="13.89" length="17.04" shape="2337.89,-970.34 2337.48,-965.35 2337.91,-961.88 2338.36,-958.41 2337.99,-953.41"/>
        <lane id=":J104_0_1" index="1" speed="13.89" length="17.04" shape="2334.74,-970.90 2334.33,-965.91 2334.76,-962.43 2335.21,-958.95 2334.83,-953.95"/>
        <lane id=":J104_0_2" index="2" speed="13.89" length="17.04" shape="2331.59,-971.46 2331.18,-966.46 2331.61,-962.98 2332.05,-959.49 2331.68,-954.48"/>
    </edge>
    <edge id=":J104_3" function="internal">
        <lane id=":J104_3_0" index="0" speed="13.89" length="16.75" shape="2319.06,-956.62 2319.53,-961.96 2319.17,-966.11 2318.38,-969.65 2317.59,-973.16"/>
    </edge>
    <edge id=":J104_4" function="internal">
        <lane id=":J104_4_0" index="0" speed="13.89" length="16.79" shape="2319.06,-956.62 2322.14,-973.15"/>
        <lane id=":J104_4_1" index="1" speed="13.89" length="16.79" shape="2322.21,-956.08 2325.29,-972.59"/>
        <lane id=":J104_4_2" index="2" speed="13.89" length="16.79" shape="2325.37,-955.55 2328.44,-972.03"/>
    </edge>
    <edge id=":J105_0" function="internal">
        <lane id=":J105_0_0" index="0" speed="6.86" length="9.25" shape="2354.01,-1025.92 2351.28,-1025.78 2349.21,-1024.97 2347.79,-1023.51 2347.03,-1021.39"/>
        <lane id=":J105_0_1" index="1" speed="7.68" length="11.82" shape="2354.01,-1025.92 2349.88,-1025.88 2346.81,-1025.21 2344.81,-1023.90 2343.88,-1021.95"/>
        <lane id=":J105_0_2" index="2" speed="8.97" length="16.49" shape="2354.20,-1029.12 2348.80,-1028.98 2344.75,-1027.83 2342.06,-1025.68 2340.73,-1022.51"/>
    </edge>
    <edge id=":J105_3" function="internal">
        <lane id=":J105_3_0" index="0" speed="10.27" length="26.32" shape="2354.20,-1029.12 2345.46,-1030.05 2338.83,-1032.01 2334.91,-1035.44 2334.27,-1040.81"/>
        <lane id=":J105_3_1" index="1" speed="9.14" length="20.58" shape="2354.39,-1032.31 2346.49,-1033.22 2341.03,-1034.84 2338.01,-1037.18 2337.42,-1040.23"/>
        <lane id=":J105_3_2" index="2" speed="8.45" length="17.43" shape="2354.39,-1032.31 2347.90,-1033.11 2343.43,-1034.60 2340.99,-1036.78 2340.57,-1039.65"/>
    </edge>
    <edge id=":J106_0" function="internal">
        <lane id=":J106_0_0" index="0" speed="12.54" length="8.61" shape="2364.98,-1118.56 2364.80,-1116.10 2365.23,-1114.43 2366.09,-1112.80 2367.23,-1110.50"/>
    </edge>
    <edge id=":J106_1" function="internal">
        <lane id=":J106_1_0" index="0" speed="13.89" length="8.62" shape="2364.98,-1118.56 2363.33,-1110.07"/>
        <lane id=":J106_1_1" index="1" speed="13.89" length="8.62" shape="2361.83,-1119.11 2360.18,-1110.65"/>
        <lane id=":J106_1_2" index="2" speed="13.89" length="8.62" shape="2358.67,-1119.66 2357.04,-1111.23"/>
    </edge>
    <edge id=":J106_4" function="internal">
        <lane id=":J106_4_0" index="0" speed="13.89" length="8.51" shape="2347.59,-1112.98 2349.21,-1121.29"/>
        <lane id=":J106_4_1" index="1" speed="13.89" length="8.51" shape="2350.74,-1112.39 2352.37,-1120.75"/>
        <lane id=":J106_4_2" index="2" speed="13.89" length="8.51" shape="2353.89,-1111.81 2355.52,-1120.20"/>
    </edge>
    <edge id=":J106_7" function="internal">
        <lane id=":J106_7_0" index="0" speed="6.91" length="2.27" shape="2353.89,-1111.81 2355.03,-1113.78"/>
    </edge>
    <edge id=":J106_8" function="internal">
        <lane id=":J106_8_0" index="0" speed="6.91" length="15.82" shape="2355.03,-1113.78 2356.14,-1115.66 2359.98,-1116.48 2364.11,-1114.63 2367.23,-1110.50"/>
    </edge>
    <edge id=":J107_0" function="internal">
        <lane id=":J107_0_0" index="0" speed="7.10" length="9.01" shape="2154.86,117.01 2152.50,117.43 2150.67,118.48 2149.38,120.14 2148.62,122.42"/>
        <lane id=":J107_0_1" index="1" speed="7.88" length="11.33" shape="2154.86,117.01 2151.07,117.45 2148.24,118.40 2146.38,119.86 2145.48,121.82"/>
        <lane id=":J107_0_2" index="2" speed="8.66" length="13.86" shape="2154.86,117.01 2149.64,117.47 2145.81,118.32 2143.38,119.58 2142.33,121.23"/>
    </edge>
    <edge id=":J107_3" function="internal">
        <lane id=":J107_3_0" index="0" speed="9.89" length="25.98" shape="2154.86,117.01 2146.36,116.94 2139.80,115.58 2135.85,112.35 2135.22,106.70"/>
        <lane id=":J107_3_1" index="1" speed="9.22" length="22.41" shape="2154.86,117.01 2146.94,116.70 2141.55,114.98 2138.69,111.83 2138.37,107.27"/>
    </edge>
    <edge id=":J107_5" function="internal">
        <lane id=":J107_5_0" index="0" speed="7.21" length="13.25" shape="2144.67,108.39 2144.90,110.95 2146.65,112.70 2149.93,113.65 2154.72,113.81"/>
    </edge>
    <edge id=":J107_6" function="internal">
        <lane id=":J107_6_0" index="0" speed="13.89" length="13.03" shape="2144.67,108.39 2142.33,121.23"/>
        <lane id=":J107_6_1" index="1" speed="13.89" length="13.03" shape="2141.52,107.83 2139.19,120.64"/>
    </edge>
    <edge id=":J107_8" function="internal">
        <lane id=":J107_8_0" index="0" speed="13.89" length="13.08" shape="2129.75,118.86 2129.98,114.95 2129.36,112.22 2128.73,109.50 2128.92,105.58"/>
        <lane id=":J107_8_1" index="1" speed="13.89" length="13.08" shape="2129.75,118.86 2132.07,106.14"/>
        <lane id=":J107_8_2" index="2" speed="13.89" length="13.08" shape="2132.90,119.46 2135.22,106.70"/>
        <lane id=":J107_8_3" index="3" speed="13.89" length="13.08" shape="2136.04,120.05 2138.37,107.27"/>
    </edge>
    <edge id=":J107_12" function="internal">
        <lane id=":J107_12_0" index="0" speed="10.47" length="2.03" shape="2136.04,120.05 2137.13,118.34"/>
    </edge>
    <edge id=":J107_13" function="internal">
        <lane id=":J107_13_0" index="0" speed="10.47" length="18.60" shape="2137.13,118.34 2137.60,117.61 2141.23,115.76 2146.94,114.49 2154.72,113.81"/>
    </edge>
    <edge id=":J108_0" function="internal">
        <lane id=":J108_0_0" index="0" speed="6.96" length="11.19" shape="2461.05,-92.96 2458.53,-93.15 2456.51,-92.11 2454.96,-89.85 2453.91,-86.36"/>
    </edge>
    <edge id=":J108_1" function="internal">
        <lane id=":J108_1_0" index="0" speed="13.89" length="14.03" shape="2461.05,-92.96 2447.55,-96.98"/>
        <lane id=":J108_1_1" index="1" speed="13.89" length="14.03" shape="2461.94,-96.04 2448.49,-100.04"/>
        <lane id=":J108_1_2" index="2" speed="13.89" length="14.03" shape="2462.83,-99.11 2449.43,-103.09"/>
    </edge>
    <edge id=":J108_4" function="internal">
        <lane id=":J108_4_0" index="0" speed="13.89" length="13.86" shape="2453.18,-115.33 2466.40,-111.40"/>
        <lane id=":J108_4_1" index="1" speed="13.89" length="13.86" shape="2452.24,-112.27 2465.51,-108.33"/>
        <lane id=":J108_4_2" index="2" speed="13.89" length="13.86" shape="2451.31,-109.21 2464.62,-105.26"/>
        <lane id=":J108_4_3" index="3" speed="13.89" length="13.86" shape="2450.37,-106.15 2463.73,-102.18"/>
    </edge>
    <edge id=":J108_8" function="internal">
        <lane id=":J108_8_0" index="0" speed="10.15" length="2.30" shape="2450.37,-106.15 2452.23,-104.82"/>
    </edge>
    <edge id=":J108_14" function="internal">
        <lane id=":J108_14_0" index="0" speed="10.15" length="19.34" shape="2452.23,-104.82 2453.23,-104.11 2454.77,-100.13 2455.00,-94.21 2453.91,-86.36"/>
    </edge>
    <edge id=":J108_9" function="internal">
        <lane id=":J108_9_0" index="0" speed="6.75" length="9.02" shape="2450.76,-86.98 2450.90,-89.42 2450.25,-91.38 2448.82,-92.88 2446.61,-93.92"/>
        <lane id=":J108_9_1" index="1" speed="7.55" length="11.55" shape="2450.76,-86.98 2451.19,-90.79 2450.80,-93.73 2449.59,-95.79 2447.55,-96.98"/>
        <lane id=":J108_9_2" index="2" speed="8.32" length="14.24" shape="2450.76,-86.98 2451.48,-92.16 2451.35,-96.07 2450.35,-98.69 2448.49,-100.04"/>
    </edge>
    <edge id=":J108_12" function="internal">
        <lane id=":J108_12_0" index="0" speed="10.26" length="25.58" shape="2450.76,-86.98 2453.20,-96.03 2456.32,-102.09 2460.13,-105.17 2464.62,-105.26"/>
        <lane id=":J108_12_1" index="1" speed="9.66" length="22.55" shape="2450.76,-86.98 2452.90,-94.65 2455.78,-99.75 2459.39,-102.26 2463.73,-102.18"/>
    </edge>
    <edge id=":J109_0" function="internal">
        <lane id=":J109_0_0" index="0" speed="7.09" length="11.97" shape="32.64,162.20 28.81,161.38 25.90,161.67 23.93,163.06 22.90,165.57"/>
        <lane id=":J109_0_1" index="1" speed="7.87" length="15.01" shape="32.64,162.20 27.46,160.97 23.58,161.03 21.01,162.37 19.75,164.98"/>
    </edge>
    <edge id=":J109_2" function="internal">
        <lane id=":J109_2_0" index="0" speed="13.89" length="34.78" shape="32.64,162.20 -0.68,152.70"/>
        <lane id=":J109_2_1" index="1" speed="13.89" length="34.78" shape="32.64,162.20 0.10,149.60"/>
    </edge>
    <edge id=":J109_4" function="internal">
        <lane id=":J109_4_0" index="0" speed="12.39" length="15.12" shape="33.62,159.15 23.09,155.02 19.88,152.96"/>
        <lane id=":J109_4_1" index="1" speed="11.88" length="12.15" shape="33.62,159.15 24.44,155.42 22.61,154.13"/>
    </edge>
    <edge id=":J109_24" function="internal">
        <lane id=":J109_24_0" index="0" speed="12.39" length="16.81" shape="19.88,152.96 15.87,150.40 11.96,145.29 11.36,139.70"/>
    </edge>
    <edge id=":J109_25" function="internal">
        <lane id=":J109_25_0" index="0" speed="11.88" length="17.15" shape="22.61,154.13 18.20,151.03 14.89,145.98 14.51,140.27"/>
    </edge>
    <edge id=":J109_6" function="internal">
        <lane id=":J109_6_0" index="0" speed="7.92" length="12.51" shape="30.26,143.11 30.06,146.66 30.88,149.50 32.71,151.63 35.56,153.05"/>
        <lane id=":J109_6_1" index="1" speed="8.63" length="15.00" shape="30.26,143.11 29.79,148.04 30.35,151.85 31.95,154.53 34.59,156.10"/>
    </edge>
    <edge id=":J109_8" function="internal">
        <lane id=":J109_8_0" index="0" speed="13.89" length="23.40" shape="27.11,142.54 22.90,165.57"/>
        <lane id=":J109_8_1" index="1" speed="13.89" length="23.40" shape="23.96,141.97 19.75,164.98"/>
    </edge>
    <edge id=":J109_10" function="internal">
        <lane id=":J109_10_0" index="0" speed="10.80" length="11.55" shape="20.81,141.40 18.39,148.10 15.15,151.13"/>
        <lane id=":J109_10_1" index="1" speed="10.31" length="9.61" shape="20.81,141.40 18.65,146.72 15.55,149.05"/>
    </edge>
    <edge id=":J109_26" function="internal">
        <lane id=":J109_26_0" index="0" speed="10.80" length="16.50" shape="15.15,151.13 14.00,152.21 7.64,153.74 -0.68,152.70"/>
    </edge>
    <edge id=":J109_27" function="internal">
        <lane id=":J109_27_0" index="0" speed="10.31" length="15.88" shape="15.55,149.05 14.48,149.85 8.29,150.81 0.10,149.60"/>
    </edge>
    <edge id=":J109_12" function="internal">
        <lane id=":J109_12_0" index="0" speed="7.19" length="11.85" shape="1.66,143.36 5.51,143.95 8.41,143.54 10.36,142.12 11.36,139.70"/>
        <lane id=":J109_12_1" index="1" speed="7.97" length="14.80" shape="1.66,143.36 6.87,144.28 10.75,144.07 13.30,142.73 14.51,140.27"/>
    </edge>
    <edge id=":J109_14" function="internal">
        <lane id=":J109_14_0" index="0" speed="13.89" length="35.29" shape="1.66,143.36 35.56,153.05"/>
        <lane id=":J109_14_1" index="1" speed="13.89" length="35.29" shape="1.66,143.36 9.56,145.95 18.19,149.51 26.79,153.17 34.59,156.10"/>
    </edge>
    <edge id=":J109_16" function="internal">
        <lane id=":J109_16_0" index="0" speed="12.08" length="18.07" shape="0.88,146.46 11.41,149.97 17.38,153.58"/>
        <lane id=":J109_16_1" index="1" speed="11.57" length="14.41" shape="0.88,146.46 10.05,149.64 13.97,152.26"/>
    </edge>
    <edge id=":J109_28" function="internal">
        <lane id=":J109_28_0" index="0" speed="12.08" length="13.94" shape="17.38,153.58 18.59,154.32 22.42,159.52 22.90,165.57"/>
    </edge>
    <edge id=":J109_29" function="internal">
        <lane id=":J109_29_0" index="0" speed="11.57" length="14.89" shape="13.97,152.26 16.25,153.78 19.49,158.90 19.75,164.98"/>
    </edge>
    <edge id=":J109_18" function="internal">
        <lane id=":J109_18_0" index="0" speed="7.50" length="11.76" shape="4.02,162.07 4.27,158.55 3.57,155.81 1.92,153.86 -0.68,152.70"/>
        <lane id=":J109_18_1" index="1" speed="8.25" length="14.41" shape="4.02,162.07 4.54,157.17 4.06,153.46 2.58,150.94 0.10,149.60"/>
    </edge>
    <edge id=":J109_20" function="internal">
        <lane id=":J109_20_0" index="0" speed="13.89" length="23.34" shape="7.17,162.66 11.36,139.70"/>
        <lane id=":J109_20_1" index="1" speed="13.89" length="23.34" shape="10.31,163.24 14.51,140.27"/>
    </edge>
    <edge id=":J109_22" function="internal">
        <lane id=":J109_22_0" index="0" speed="10.72" length="11.66" shape="13.46,163.82 16.01,156.84 19.13,153.99"/>
        <lane id=":J109_22_1" index="1" speed="10.23" length="9.80" shape="13.46,163.82 15.73,158.22 18.75,155.99"/>
    </edge>
    <edge id=":J109_30" function="internal">
        <lane id=":J109_30_0" index="0" speed="10.72" length="17.19" shape="19.13,153.99 20.54,152.71 27.06,151.45 35.56,153.05"/>
    </edge>
    <edge id=":J109_31" function="internal">
        <lane id=":J109_31_0" index="0" speed="10.23" length="16.37" shape="18.75,155.99 20.01,155.06 26.29,154.36 34.59,156.10"/>
    </edge>
    <edge id=":J11_0" function="internal">
        <lane id=":J11_0_0" index="0" speed="6.35" length="9.04" shape="-2387.87,2046.24 -2390.36,2046.03 -2392.27,2046.69 -2393.58,2048.21 -2394.30,2050.61"/>
    </edge>
    <edge id=":J11_1" function="internal">
        <lane id=":J11_1_0" index="0" speed="13.89" length="15.21" shape="-2387.87,2046.24 -2402.55,2042.26"/>
    </edge>
    <edge id=":J11_2" function="internal">
        <lane id=":J11_2_0" index="0" speed="8.34" length="4.44" shape="-2387.87,2046.24 -2391.59,2044.79 -2391.92,2044.48"/>
    </edge>
    <edge id=":J11_9" function="internal">
        <lane id=":J11_9_0" index="0" speed="8.34" length="10.40" shape="-2391.92,2044.48 -2394.03,2042.47 -2395.18,2039.27 -2395.04,2035.19"/>
    </edge>
    <edge id=":J11_3" function="internal">
        <lane id=":J11_3_0" index="0" speed="6.91" length="9.89" shape="-2391.89,2035.74 -2391.99,2038.47 -2391.23,2040.61 -2389.61,2042.16 -2387.14,2043.12"/>
    </edge>
    <edge id=":J11_4" function="internal">
        <lane id=":J11_4_0" index="0" speed="13.89" length="15.07" shape="-2391.89,2035.74 -2394.30,2050.61"/>
    </edge>
    <edge id=":J11_5" function="internal">
        <lane id=":J11_5_0" index="0" speed="7.79" length="14.71" shape="-2391.89,2035.74 -2393.16,2039.65 -2395.36,2042.03 -2398.49,2042.91 -2402.55,2042.26"/>
    </edge>
    <edge id=":J11_6" function="internal">
        <lane id=":J11_6_0" index="0" speed="6.24" length="9.05" shape="-2401.60,2039.21 -2399.10,2039.60 -2397.18,2039.07 -2395.83,2037.60 -2395.04,2035.19"/>
    </edge>
    <edge id=":J11_7" function="internal">
        <lane id=":J11_7_0" index="0" speed="13.89" length="14.97" shape="-2401.60,2039.21 -2387.14,2043.12"/>
    </edge>
    <edge id=":J11_8" function="internal">
        <lane id=":J11_8_0" index="0" speed="8.69" length="4.07" shape="-2401.60,2039.21 -2397.91,2040.92"/>
    </edge>
    <edge id=":J11_10" function="internal">
        <lane id=":J11_10_0" index="0" speed="8.69" length="10.91" shape="-2397.91,2040.92 -2395.47,2043.39 -2394.26,2046.62 -2394.30,2050.61"/>
    </edge>
    <edge id=":J110_0" function="internal">
        <lane id=":J110_0_0" index="0" speed="7.07" length="11.99" shape="122.57,-336.13 118.73,-336.98 115.83,-336.70 113.86,-335.30 112.84,-332.77"/>
        <lane id=":J110_0_1" index="1" speed="7.85" length="15.06" shape="122.57,-336.13 117.38,-337.39 113.51,-337.35 110.94,-336.00 109.69,-333.34"/>
    </edge>
    <edge id=":J110_2" function="internal">
        <lane id=":J110_2_0" index="0" speed="13.89" length="35.57" shape="122.57,-336.13 88.78,-346.96"/>
        <lane id=":J110_2_1" index="1" speed="13.89" length="35.57" shape="122.57,-336.13 89.74,-350.01"/>
    </edge>
    <edge id=":J110_4" function="internal">
        <lane id=":J110_4_0" index="0" speed="12.58" length="15.67" shape="123.57,-339.17 113.04,-343.45 109.46,-345.84"/>
        <lane id=":J110_4_1" index="1" speed="12.09" length="12.41" shape="123.57,-339.17 114.39,-343.03 112.42,-344.48"/>
    </edge>
    <edge id=":J110_24" function="internal">