<?xml version="1.0" encoding="UTF-8"?>

<!-- generated on 2025-08-21 16:09:45 by Eclipse SUMO netedit Version 1.19.0
<configuration xmlns:xsi="http://www.w3.org/2001/XMLSchema-instance" xsi:noNamespaceSchemaLocation="http://sumo.dlr.de/xsd/neteditConfiguration.xsd">

    <input>
        <sumo-net-file value="C:\Users\Lucas\Lucas\traffic_optimization\traffic_optimization\NETWORKS\Hwy7_404_network\Hwy7_404.net.xml"/>
    </input>

    <output>
        <output-file value="C:\Users\Lucas\Lucas\traffic_optimization\traffic_optimization\NETWORKS\Hwy7_404_network\Hwy7_404.net.xml"/>
    </output>

    <processing>
        <geometry.min-radius.fix.railways value="false"/>
        <geometry.max-grade.fix value="false"/>
        <offset.disable-normalization value="true"/>
        <lefthand value="0"/>
    </processing>

    <junctions>
        <no-turnarounds value="true"/>
        <junctions.corner-detail value="5"/>
        <junctions.limit-turn-speed value="5.50"/>
        <rectangular-lane-cut value="0"/>
    </junctions>

    <pedestrian>
        <walkingareas value="0"/>
    </pedestrian>

</configuration>
-->

<net version="1.16" junctionCornerDetail="5" limitTurnSpeed="5.50" xmlns:xsi="http://www.w3.org/2001/XMLSchema-instance" xsi:noNamespaceSchemaLocation="http://sumo.dlr.de/xsd/net_file.xsd">

    <location netOffset="0.00,0.00" convBoundary="-4096.23,-2662.79,3659.30,2383.87" origBoundary="-10000000000.00,-10000000000.00,10000000000.00,10000000000.00" projParameter="!"/>

    <edge id=":J0_0" function="internal">
        <lane id=":J0_0_0" index="0" speed="13.89" length="27.16" shape="-3911.15,-2196.60 -3904.16,-2192.98 -3898.81,-2191.83 -3893.10,-2191.66 -3885.03,-2190.96"/>
        <lane id=":J0_0_1" index="1" speed="13.89" length="27.49" shape="-3911.15,-2196.60 -3904.19,-2192.44 -3899.05,-2190.22 -3893.55,-2188.99 -3885.49,-2187.79"/>
        <lane id=":J0_0_2" index="2" speed="13.89" length="28.83" shape="-3912.86,-2193.89 -3905.56,-2189.53 -3900.18,-2187.19 -3894.41,-2185.88 -3885.96,-2184.63"/>
    </edge>
    <edge id=":J0_3" function="internal">
        <lane id=":J0_3_0" index="0" speed="13.89" length="29.11" shape="-3912.86,-2193.89 -3887.47,-2180.26"/>
        <lane id=":J0_3_1" index="1" speed="13.89" length="29.11" shape="-3914.57,-2191.19 -3889.06,-2177.48"/>
        <lane id=":J0_3_2" index="2" speed="13.89" length="29.11" shape="-3916.28,-2188.48 -3890.64,-2174.70"/>
        <lane id=":J0_3_3" index="3" speed="13.89" length="29.11" shape="-3917.99,-2185.78 -3892.22,-2171.92"/>
        <lane id=":J0_3_4" index="4" speed="13.89" length="29.11" shape="-3919.70,-2183.07 -3893.81,-2169.14"/>
    </edge>
    <edge id=":J1_0" function="internal">
        <lane id=":J1_0_0" index="0" speed="13.89" length="15.72" shape="-3017.75,492.99 -3032.79,488.40"/>
        <lane id=":J1_0_1" index="1" speed="13.89" length="15.72" shape="-3016.82,489.93 -3031.85,485.34"/>
    </edge>
    <edge id=":J1_2" function="internal">
        <lane id=":J1_2_0" index="0" speed="10.17" length="8.07" shape="-3015.89,486.87 -3019.70,484.51 -3021.23,481.26"/>
    </edge>
    <edge id=":J1_13" function="internal">
        <lane id=":J1_13_0" index="0" speed="10.17" length="15.25" shape="-3021.23,481.26 -3021.69,480.29 -3021.86,474.22 -3020.20,466.29"/>
    </edge>
    <edge id=":J1_3" function="internal">
        <lane id=":J1_3_0" index="0" speed="7.64" length="12.73" shape="-3017.13,467.18 -3017.80,471.04 -3017.36,474.07 -3015.79,476.29 -3013.10,477.69"/>
    </edge>
    <edge id=":J1_4" function="internal">
        <lane id=":J1_4_0" index="0" speed="13.89" length="33.18" shape="-3017.13,467.18 -3018.79,473.56 -3021.15,483.28 -3023.42,493.02 -3024.81,499.46"/>
    </edge>
    <edge id=":J1_5" function="internal">
        <lane id=":J1_5_0" index="0" speed="10.51" length="25.56" shape="-3017.13,467.18 -3020.31,476.13 -3023.82,482.14 -3027.67,485.21 -3031.85,485.34"/>
    </edge>
    <edge id=":J1_6" function="internal">
        <lane id=":J1_6_0" index="0" speed="6.47" length="9.03" shape="-3027.15,470.05 -3024.70,470.43 -3022.72,469.93 -3021.22,468.56 -3020.20,466.29"/>
    </edge>
    <edge id=":J1_7" function="internal">
        <lane id=":J1_7_0" index="0" speed="13.89" length="15.68" shape="-3028.09,473.10 -3013.10,477.69"/>
        <lane id=":J1_7_1" index="1" speed="13.89" length="15.68" shape="-3029.03,476.16 -3014.03,480.75"/>
    </edge>
    <edge id=":J1_9" function="internal">
        <lane id=":J1_9_0" index="0" speed="10.43" length="7.84" shape="-3029.97,479.22 -3026.48,481.46 -3024.85,484.78"/>
    </edge>
    <edge id=":J1_14" function="internal">
        <lane id=":J1_14_0" index="0" speed="10.43" length="14.85" shape="-3024.85,484.78 -3024.45,485.58 -3023.90,491.58 -3024.81,499.46"/>
    </edge>
    <edge id=":J1_10" function="internal">
        <lane id=":J1_10_0" index="0" speed="7.95" length="12.80" shape="-3027.96,498.87 -3027.67,495.03 -3028.37,492.00 -3030.08,489.79 -3032.79,488.40"/>
    </edge>
    <edge id=":J1_11" function="internal">
        <lane id=":J1_11_0" index="0" speed="13.89" length="33.49" shape="-3027.96,498.87 -3026.56,492.38 -3024.26,482.54 -3021.87,472.72 -3020.20,466.29"/>
    </edge>
    <edge id=":J1_12" function="internal">
        <lane id=":J1_12_0" index="0" speed="10.26" length="26.00" shape="-3027.96,498.87 -3025.97,490.42 -3023.24,484.18 -3019.38,480.76 -3014.03,480.75"/>
    </edge>
    <edge id=":J101_0" function="internal">
        <lane id=":J101_0_0" index="0" speed="8.55" length="13.71" shape="-826.00,-1459.21 -828.53,-1459.00 -830.90,-1457.45 -833.12,-1454.56 -835.18,-1450.33"/>
    </edge>
    <edge id=":J101_1" function="internal">
        <lane id=":J101_1_0" index="0" speed="13.89" length="21.38" shape="-826.00,-1459.21 -830.08,-1459.46 -834.98,-1459.36 -840.75,-1459.59 -847.48,-1460.86"/>
        <lane id=":J101_1_1" index="1" speed="13.89" length="21.38" shape="-826.00,-1459.21 -829.95,-1459.94 -834.55,-1460.90 -840.03,-1462.20 -846.62,-1463.95"/>
    </edge>
    <edge id=":J101_3" function="internal">
        <lane id=":J101_3_0" index="0" speed="13.89" length="20.83" shape="-845.75,-1467.06 -841.24,-1465.88 -835.65,-1464.54 -830.03,-1463.30 -825.46,-1462.41"/>
    </edge>
    <edge id=":J101_4" function="internal">
        <lane id=":J101_4_0" index="0" speed="9.10" length="20.25" shape="-845.75,-1467.06 -840.60,-1464.77 -837.61,-1461.42 -836.79,-1457.01 -838.14,-1451.54"/>
    </edge>
    <edge id=":J101_5" function="internal">
        <lane id=":J101_5_0" index="0" speed="6.27" length="9.04" shape="-844.07,-1453.94 -843.47,-1456.39 -843.84,-1458.36 -845.17,-1459.85 -847.48,-1460.86"/>
        <lane id=":J101_5_1" index="1" speed="7.81" length="14.64" shape="-841.11,-1452.74 -840.13,-1456.70 -840.73,-1459.89 -842.89,-1462.30 -846.62,-1463.95"/>
    </edge>
    <edge id=":J101_7" function="internal">
        <lane id=":J101_7_0" index="0" speed="10.28" length="20.12" shape="-841.11,-1452.74 -838.38,-1457.67 -834.86,-1460.93 -830.55,-1462.51 -825.46,-1462.41"/>
    </edge>
    <edge id=":J102_0" function="internal">
        <lane id=":J102_0_0" index="0" speed="6.26" length="9.04" shape="2198.86,-179.97 2196.37,-180.36 2194.44,-179.82 2193.08,-178.35 2192.28,-175.96"/>
    </edge>
    <edge id=":J102_1" function="internal">
        <lane id=":J102_1_0" index="0" speed="13.89" length="15.30" shape="2198.86,-179.97 2184.26,-184.56"/>
    </edge>
    <edge id=":J102_2" function="internal">
        <lane id=":J102_2_0" index="0" speed="8.61" length="15.08" shape="2198.86,-179.97 2195.18,-181.69 2192.78,-184.19 2191.66,-187.48 2191.82,-191.56"/>
    </edge>
    <edge id=":J102_3" function="internal">
        <lane id=":J102_3_0" index="0" speed="7.24" length="10.36" shape="2194.97,-190.99 2194.86,-188.19 2195.63,-185.93 2197.27,-184.21 2199.80,-183.03"/>
    </edge>
    <edge id=":J102_4" function="internal">
        <lane id=":J102_4_0" index="0" speed="13.89" length="15.28" shape="2194.97,-190.99 2192.28,-175.96"/>
    </edge>
    <edge id=":J102_5" function="internal">
        <lane id=":J102_5_0" index="0" speed="7.78" length="4.12" shape="2194.97,-190.99 2193.68,-187.09"/>
    </edge>
    <edge id=":J102_12" function="internal">
        <lane id=":J102_12_0" index="0" speed="7.78" length="10.61" shape="2193.68,-187.09 2191.46,-184.71 2188.32,-183.87 2184.26,-184.56"/>
    </edge>
    <edge id=":J102_6" function="internal">
        <lane id=":J102_6_0" index="0" speed="6.23" length="9.05" shape="2185.25,-187.61 2187.74,-187.18 2189.67,-187.70 2191.03,-189.16 2191.82,-191.56"/>
    </edge>
    <edge id=":J102_7" function="internal">
        <lane id=":J102_7_0" index="0" speed="13.89" length="15.25" shape="2185.25,-187.61 2199.80,-183.03"/>
    </edge>
    <edge id=":J102_8" function="internal">
        <lane id=":J102_8_0" index="0" speed="8.67" length="15.10" shape="2185.25,-187.61 2188.92,-185.83 2191.32,-183.30 2192.44,-180.01 2192.28,-175.96"/>
    </edge>
    <edge id=":J102_9" function="internal">
        <lane id=":J102_9_0" index="0" speed="7.30" length="10.43" shape="2189.13,-176.52 2189.24,-179.32 2188.46,-181.59 2186.81,-183.34 2184.26,-184.56"/>
    </edge>
    <edge id=":J102_10" function="internal">
        <lane id=":J102_10_0" index="0" speed="13.89" length="15.28" shape="2189.13,-176.52 2191.82,-191.56"/>
    </edge>
    <edge id=":J102_11" function="internal">
        <lane id=":J102_11_0" index="0" speed="7.80" length="4.09" shape="2189.13,-176.52 2190.42,-180.40"/>
    </edge>
    <edge id=":J102_13" function="internal">
        <lane id=":J102_13_0" index="0" speed="7.80" length="10.58" shape="2190.42,-180.40 2192.63,-182.78 2195.75,-183.66 2199.80,-183.03"/>
    </edge>
    <edge id=":J103_0" function="internal">
        <lane id=":J103_0_0" index="0" speed="6.25" length="9.04" shape="2281.56,-642.84 2279.07,-643.24 2277.15,-642.70 2275.79,-641.24 2274.99,-638.84"/>
    </edge>
    <edge id=":J103_1" function="internal">
        <lane id=":J103_1_0" index="0" speed="13.89" length="15.38" shape="2281.56,-642.84 2266.91,-647.51"/>
    </edge>
    <edge id=":J103_2" function="internal">
        <lane id=":J103_2_0" index="0" speed="8.71" length="15.18" shape="2281.56,-642.84 2277.89,-644.57 2275.48,-647.10 2274.32,-650.41 2274.43,-654.52"/>
    </edge>
    <edge id=":J103_3" function="internal">
        <lane id=":J103_3_0" index="0" speed="7.33" length="10.51" shape="2277.58,-654.01 2277.51,-651.15 2278.31,-648.85 2279.97,-647.11 2282.51,-645.91"/>
    </edge>
    <edge id=":J103_4" function="internal">
        <lane id=":J103_4_0" index="0" speed="13.89" length="15.39" shape="2277.58,-654.01 2274.99,-638.84"/>
    </edge>
    <edge id=":J103_5" function="internal">
        <lane id=":J103_5_0" index="0" speed="7.75" length="14.81" shape="2277.58,-654.01 2276.34,-650.05 2274.14,-647.64 2271.00,-646.80 2266.91,-647.51"/>
    </edge>
    <edge id=":J103_6" function="internal">
        <lane id=":J103_6_0" index="0" speed="7.34" length="10.52" shape="2271.84,-639.40 2271.95,-642.21 2271.16,-644.50 2269.48,-646.27 2266.91,-647.51"/>
    </edge>
    <edge id=":J103_7" function="internal">
        <lane id=":J103_7_0" index="0" speed="13.89" length="15.34" shape="2271.84,-639.40 2274.43,-654.52"/>
    </edge>
    <edge id=":J103_8" function="internal">
        <lane id=":J103_8_0" index="0" speed="7.80" length="14.69" shape="2271.84,-639.40 2273.13,-643.29 2275.34,-645.67 2278.47,-646.55 2282.51,-645.91"/>
    </edge>
    <edge id=":J104_0" function="internal">
        <lane id=":J104_0_0" index="0" speed="13.89" length="19.36" shape="2328.94,-965.12 2325.19,-946.12"/>
    </edge>
    <edge id=":J104_1" function="internal">
        <lane id=":J104_1_0" index="0" speed="4.85" length="1.91" shape="2328.94,-965.12 2327.84,-963.55"/>
    </edge>
    <edge id=":J104_4" function="internal">
        <lane id=":J104_4_0" index="0" speed="4.85" length="7.42" shape="2327.84,-963.55 2327.60,-963.22 2325.37,-962.85 2323.27,-963.87 2322.35,-966.10"/>
    </edge>
    <edge id=":J104_2" function="internal">
        <lane id=":J104_2_0" index="0" speed="13.89" length="19.48" shape="2322.03,-946.64 2322.42,-951.06 2322.48,-956.34 2322.40,-961.64 2322.35,-966.10"/>
    </edge>
    <edge id=":J104_3" function="internal">
        <lane id=":J104_3_0" index="0" speed="13.89" length="19.48" shape="2322.03,-946.64 2325.81,-965.75"/>
    </edge>
    <edge id=":J105_0" function="internal">
        <lane id=":J105_0_0" index="0" speed="13.89" length="10.10" shape="2338.48,-1028.74 2340.41,-1038.66"/>
    </edge>
    <edge id=":J107_0" function="internal">
        <lane id=":J107_0_0" index="0" speed="7.51" length="10.27" shape="2146.47,117.38 2143.47,117.83 2141.20,118.90 2139.65,120.57 2138.81,122.86"/>
    </edge>
    <edge id=":J107_1" function="internal">
        <lane id=":J107_1_0" index="0" speed="7.66" length="15.11" shape="2146.47,117.38 2142.21,116.95 2139.42,115.25 2138.10,112.25 2138.24,107.97"/>
    </edge>
    <edge id=":J107_2" function="internal">
        <lane id=":J107_2_0" index="0" speed="6.08" length="9.06" shape="2141.39,108.54 2141.31,111.11 2142.10,112.90 2143.77,113.93 2146.33,114.18"/>
    </edge>
    <edge id=":J107_3" function="internal">
        <lane id=":J107_3_0" index="0" speed="13.89" length="14.56" shape="2141.39,108.54 2138.81,122.86"/>
    </edge>
    <edge id=":J108_0" function="internal">
        <lane id=":J108_0_0" index="0" speed="6.79" length="9.37" shape="2461.80,-99.41 2459.37,-99.73 2457.33,-99.17 2455.70,-97.73 2454.47,-95.40"/>
    </edge>
    <edge id=":J108_1" function="internal">
        <lane id=":J108_1_0" index="0" speed="13.89" length="14.39" shape="2461.80,-99.41 2448.01,-103.53"/>
    </edge>
    <edge id=":J108_2" function="internal">
        <lane id=":J108_2_0" index="0" speed="13.89" length="14.34" shape="2448.95,-106.59 2462.69,-102.48"/>
    </edge>
    <edge id=":J108_3" function="internal">
        <lane id=":J108_3_0" index="0" speed="7.90" length="3.98" shape="2448.95,-106.59 2452.56,-104.89"/>
    </edge>
    <edge id=":J108_6" function="internal">
        <lane id=":J108_6_0" index="0" speed="7.90" length="10.44" shape="2452.56,-104.89 2454.68,-102.46 2455.32,-99.30 2454.47,-95.40"/>
    </edge>
    <edge id=":J108_4" function="internal">
        <lane id=":J108_4_0" index="0" speed="6.38" length="9.04" shape="2451.47,-96.52 2452.00,-98.96 2451.60,-100.94 2450.27,-102.46 2448.01,-103.53"/>
    </edge>
    <edge id=":J108_5" function="internal">
        <lane id=":J108_5_0" index="0" speed="8.24" length="14.26" shape="2451.47,-96.52 2453.34,-100.01 2455.83,-102.17 2458.95,-102.99 2462.69,-102.48"/>
    </edge>
    <edge id=":J109_0" function="internal">
        <lane id=":J109_0_0" index="0" speed="6.25" length="9.05" shape="24.01,156.08 21.52,155.67 19.59,156.19 18.22,157.64 17.41,160.03"/>
    </edge>
    <edge id=":J109_1" function="internal">
        <lane id=":J109_1_0" index="0" speed="13.89" length="14.94" shape="24.01,156.08 9.64,151.99"/>
    </edge>
    <edge id=":J109_2" function="internal">
        <lane id=":J109_2_0" index="0" speed="8.60" length="14.91" shape="24.01,156.08 20.35,154.34 17.95,151.85 16.83,148.62 16.97,144.65"/>
    </edge>
    <edge id=":J109_3" function="internal">
        <lane id=":J109_3_0" index="0" speed="7.22" length="10.23" shape="20.12,145.21 20.03,147.93 20.80,150.13 22.46,151.84 24.99,153.04"/>
    </edge>
    <edge id=":J109_4" function="internal">
        <lane id=":J109_4_0" index="0" speed="13.89" length="15.07" shape="20.12,145.21 17.41,160.03"/>
    </edge>
    <edge id=":J109_5" function="internal">
        <lane id=":J109_5_0" index="0" speed="7.89" length="4.14" shape="20.12,145.21 18.86,149.01 18.76,149.12"/>
    </edge>
    <edge id=":J109_12" function="internal">
        <lane id=":J109_12_0" index="0" speed="7.89" length="10.32" shape="18.76,149.12 16.69,151.40 13.62,152.40 9.64,151.99"/>
    </edge>
    <edge id=":J109_6" function="internal">
        <lane id=":J109_6_0" index="0" speed="6.36" length="9.04" shape="10.42,148.87 12.91,149.13 14.83,148.51 16.18,147.02 16.97,144.65"/>
    </edge>
    <edge id=":J109_7" function="internal">
        <lane id=":J109_7_0" index="0" speed="13.89" length="15.15" shape="10.42,148.87 24.99,153.04"/>
    </edge>
    <edge id=":J109_8" function="internal">
        <lane id=":J109_8_0" index="0" speed="8.36" length="14.82" shape="10.42,148.87 14.10,150.39 16.50,152.75 17.60,155.97 17.41,160.03"/>
    </edge>
    <edge id=":J109_9" function="internal">
        <lane id=":J109_9_0" index="0" speed="6.93" length="9.88" shape="14.27,159.45 14.40,156.73 13.67,154.57 12.08,152.99 9.64,151.99"/>
    </edge>
    <edge id=":J109_10" function="internal">
        <lane id=":J109_10_0" index="0" speed="13.89" length="15.05" shape="14.27,159.45 16.97,144.65"/>
    </edge>
    <edge id=":J109_11" function="internal">
        <lane id=":J109_11_0" index="0" speed="7.79" length="4.10" shape="14.27,159.45 15.58,155.57"/>
    </edge>
    <edge id=":J109_13" function="internal">
        <lane id=":J109_13_0" index="0" speed="7.79" length="10.59" shape="15.58,155.57 17.81,153.20 20.94,152.36 24.99,153.04"/>
    </edge>
    <edge id=":J11_0" function="internal">
        <lane id=":J11_0_0" index="0" speed="7.72" length="13.90" shape="-2379.64,2051.43 -2384.58,2050.65 -2388.22,2050.91 -2390.58,2052.19 -2391.66,2054.51"/>
    </edge>
    <edge id=":J11_1" function="internal">
        <lane id=":J11_1_0" index="0" speed="13.89" length="33.49" shape="-2379.64,2051.43 -2387.97,2048.84 -2397.16,2045.25 -2405.43,2041.80 -2410.97,2039.65"/>
    </edge>
    <edge id=":J11_2" function="internal">
        <lane id=":J11_2_0" index="0" speed="11.35" length="28.34" shape="-2378.92,2048.31 -2386.48,2045.51 -2391.48,2041.19 -2393.92,2035.36 -2393.80,2028.01"/>
    </edge>
    <edge id=":J11_3" function="internal">
        <lane id=":J11_3_0" index="0" speed="8.76" length="16.50" shape="-2381.19,2030.19 -2381.89,2036.29 -2381.63,2040.82 -2380.40,2043.79 -2378.20,2045.19"/>
    </edge>
    <edge id=":J11_4" function="internal">
        <lane id=":J11_4_0" index="0" speed="13.89" length="26.00" shape="-2384.34,2029.65 -2386.21,2037.53 -2388.27,2043.16 -2390.19,2048.25 -2391.66,2054.51"/>
        <lane id=":J11_4_1" index="1" speed="13.89" length="26.00" shape="-2387.49,2029.10 -2389.36,2037.01 -2391.43,2042.66 -2393.36,2047.76 -2394.82,2054.03"/>
    </edge>
    <edge id=":J11_6" function="internal">
        <lane id=":J11_6_0" index="0" speed="10.42" length="11.76" shape="-2390.65,2028.56 -2392.99,2035.44 -2396.17,2038.60"/>
    </edge>
    <edge id=":J11_15" function="internal">
        <lane id=":J11_15_0" index="0" speed="10.42" length="15.48" shape="-2396.17,2038.60 -2397.16,2039.59 -2403.15,2040.99 -2410.97,2039.65"/>
    </edge>
    <edge id=":J11_7" function="internal">
        <lane id=":J11_7_0" index="0" speed="6.61" length="10.27" shape="-2408.12,2030.48 -2404.99,2031.07 -2402.61,2030.68 -2400.98,2029.30 -2400.11,2026.92"/>
        <lane id=":J11_7_1" index="1" speed="8.08" length="15.92" shape="-2409.07,2033.54 -2404.37,2034.38 -2400.79,2033.65 -2398.32,2031.34 -2396.95,2027.47"/>
    </edge>
    <edge id=":J11_9" function="internal">
        <lane id=":J11_9_0" index="0" speed="13.89" length="33.00" shape="-2409.07,2033.54 -2378.20,2045.19"/>
    </edge>
    <edge id=":J11_10" function="internal">
        <lane id=":J11_10_0" index="0" speed="11.18" length="25.41" shape="-2410.02,2036.59 -2402.68,2039.66 -2397.70,2043.60 -2395.08,2048.38 -2394.82,2054.03"/>
    </edge>
    <edge id=":J11_11" function="internal">
        <lane id=":J11_11_0" index="0" speed="8.42" length="13.99" shape="-2407.48,2052.11 -2407.08,2047.26 -2407.53,2043.56 -2408.82,2041.03 -2410.97,2039.65"/>
    </edge>
    <edge id=":J11_12" function="internal">
        <lane id=":J11_12_0" index="0" speed="13.89" length="25.98" shape="-2404.31,2052.59 -2400.11,2026.92"/>
        <lane id=":J11_12_1" index="1" speed="13.89" length="25.98" shape="-2401.15,2053.07 -2396.95,2027.47"/>
    </edge>
    <edge id=":J11_14" function="internal">
        <lane id=":J11_14_0" index="0" speed="10.11" length="5.34" shape="-2397.99,2053.55 -2396.12,2048.55"/>
    </edge>
    <edge id=":J11_16" function="internal">
        <lane id=":J11_16_0" index="0" speed="10.11" length="19.31" shape="-2396.12,2048.55 -2396.04,2048.34 -2392.09,2045.21 -2386.14,2044.16 -2378.20,2045.19"/>
    </edge>
    <edge id=":J110_0" function="internal">
        <lane id=":J110_0_0" index="0" speed="6.23" length="9.05" shape="113.94,-342.33 111.44,-342.77 109.52,-342.26 108.15,-340.81 107.35,-338.41"/>
    </edge>
    <edge id=":J110_1" function="internal">
        <lane id=":J110_1_0" index="0" speed="13.89" length="15.30" shape="113.94,-342.33 99.37,-347.00"/>
    </edge>
    <edge id=":J110_2" function="internal">
        <lane id=":J110_2_0" index="0" speed="8.71" length="15.15" shape="113.94,-342.33 110.27,-344.13 107.87,-346.68 106.74,-349.99 106.89,-354.05"/>
    </edge>
    <edge id=":J110_3" function="internal">
        <lane id=":J110_3_0" index="0" speed="7.35" length="10.51" shape="110.04,-353.50 109.94,-350.68 110.72,-348.39 112.39,-346.62 114.93,-345.37"/>
    </edge>
    <edge id=":J110_4" function="internal">
        <lane id=":J110_4_0" index="0" speed="13.89" length="15.33" shape="110.04,-353.50 107.35,-338.41"/>
    </edge>
    <edge id=":J110_5" function="internal">
        <lane id=":J110_5_0" index="0" speed="7.79" length="4.11" shape="110.04,-353.50 108.76,-349.60"/>
    </edge>
    <edge id=":J110_12" function="internal">
        <lane id=":J110_12_0" index="0" speed="7.79" length="10.60" shape="108.76,-349.60 106.55,-347.21 103.42,-346.35 99.37,-347.00"/>
    </edge>
    <edge id=":J110_6" function="internal">
        <lane id=":J110_6_0" index="0" speed="6.25" length="9.05" shape="100.33,-350.06 102.82,-349.65 104.74,-350.19 106.10,-351.65 106.89,-354.05"/>
    </edge>
    <edge id=":J110_7" function="internal">
        <lane id=":J110_7_0" index="0" speed="13.89" length="15.34" shape="100.33,-350.06 114.93,-345.37"/>
    </edge>
    <edge id=":J110_8" function="internal">
        <lane id=":J110_8_0" index="0" speed="8.64" length="15.12" shape="100.33,-350.06 104.00,-348.32 106.40,-345.79 107.52,-342.49 107.35,-338.41"/>
    </edge>
    <edge id=":J110_9" function="internal">
        <lane id=":J110_9_0" index="0" speed="7.26" length="10.41" shape="104.20,-338.98 104.32,-341.79 103.55,-344.07 101.90,-345.80 99.37,-347.00"/>
    </edge>
    <edge id=":J110_10" function="internal">
        <lane id=":J110_10_0" index="0" speed="13.89" length="15.31" shape="104.20,-338.98 106.89,-354.05"/>
    </edge>
    <edge id=":J110_11" function="internal">
        <lane id=":J110_11_0" index="0" speed="7.77" length="4.12" shape="104.20,-338.98 105.51,-342.89"/>
    </edge>
    <edge id=":J110_13" function="internal">
        <lane id=":J110_13_0" index="0" speed="7.77" length="10.62" shape="105.51,-342.89 107.73,-345.26 110.87,-346.09 114.93,-345.37"/>
    </edge>
    <edge id=":J111_0" function="internal">
        <lane id=":J111_0_0" index="0" speed="6.53" length="8.23" shape="2264.54,117.07 2263.87,114.96 2262.69,113.48 2260.99,112.64 2258.78,112.43"/>
    </edge>
    <edge id=":J111_1" function="internal">
        <lane id=":J111_1_0" index="0" speed="8.92" length="12.58" shape="2264.54,117.07 2264.36,113.65 2265.05,110.69 2266.62,108.20 2269.06,106.18"/>
    </edge>
    <edge id=":J111_2" function="internal">
        <lane id=":J111_2_0" index="0" speed="7.49" length="8.72" shape="2270.75,108.90 2269.09,110.29 2268.04,112.02 2267.59,114.09 2267.75,116.50"/>
    </edge>
    <edge id=":J111_3" function="internal">
        <lane id=":J111_3_0" index="0" speed="13.89" length="12.65" shape="2270.75,108.90 2267.79,110.53 2265.04,111.57 2262.16,112.16 2258.78,112.43"/>
    </edge>
    <edge id=":J111_4" function="internal">
        <lane id=":J111_4_0" index="0" speed="13.89" length="11.05" shape="2258.64,109.23 2261.77,109.03 2264.13,108.61 2266.34,107.74 2269.06,106.18"/>
    </edge>
    <edge id=":J111_5" function="internal">
        <lane id=":J111_5_0" index="0" speed="8.06" length="3.49" shape="2258.64,109.23 2262.11,109.56"/>
    </edge>
    <edge id=":J111_6" function="internal">
        <lane id=":J111_6_0" index="0" speed="8.06" length="9.45" shape="2262.11,109.56 2264.79,110.88 2266.67,113.19 2267.75,116.50"/>
    </edge>
    <edge id=":J112_0" function="internal">
        <lane id=":J112_0_0" index="0" speed="9.62" length="10.44" shape="2415.82,24.64 2412.94,23.82 2410.30,23.60 2407.90,23.97 2405.74,24.93"/>
    </edge>
    <edge id=":J112_1" function="internal">
        <lane id=":J112_1_0" index="0" speed="8.00" length="14.20" shape="2415.82,24.64 2412.40,22.78 2410.40,20.28 2409.81,17.12 2410.64,13.32"/>
    </edge>
    <edge id=":J112_2" function="internal">
        <lane id=":J112_2_0" index="0" speed="6.51" length="9.03" shape="2413.64,14.44 2413.11,16.86 2413.49,18.86 2414.76,20.46 2416.94,21.64"/>
    </edge>
    <edge id=":J112_3" function="internal">
        <lane id=":J112_3_0" index="0" speed="13.79" length="13.40" shape="2413.64,14.44 2412.27,17.68 2410.63,20.45 2408.52,22.84 2405.74,24.93"/>
    </edge>
    <edge id=":J112_4" function="internal">
        <lane id=":J112_4_0" index="0" speed="12.73" length="11.37" shape="2404.05,22.21 2406.63,20.37 2408.29,18.54 2409.47,16.32 2410.64,13.32"/>
    </edge>
    <edge id=":J112_5" function="internal">
        <lane id=":J112_5_0" index="0" speed="10.83" length="3.11" shape="2404.05,22.21 2406.88,20.92"/>
    </edge>
    <edge id=":J112_6" function="internal">
        <lane id=":J112_6_0" index="0" speed="10.83" length="10.24" shape="2406.88,20.92 2409.97,20.39 2413.32,20.63 2416.94,21.64"/>
    </edge>
    <edge id=":J113_0" function="internal">
        <lane id=":J113_0_0" index="0" speed="6.51" length="8.88" shape="2503.77,178.74 2501.35,178.60 2499.44,179.26 2498.06,180.73 2497.19,182.99"/>
    </edge>
    <edge id=":J113_1" function="internal">
        <lane id=":J113_1_0" index="0" speed="8.05" length="13.93" shape="2503.77,178.74 2500.18,177.47 2497.80,175.37 2496.65,172.42 2496.71,168.64"/>
    </edge>
    <edge id=":J113_2" function="internal">
        <lane id=":J113_2_0" index="0" speed="6.57" length="8.92" shape="2499.87,169.14 2499.83,171.56 2500.57,173.45 2502.10,174.79 2504.40,175.61"/>
    </edge>
    <edge id=":J113_3" function="internal">
        <lane id=":J113_3_0" index="0" speed="13.89" length="14.11" shape="2499.87,169.14 2497.19,182.99"/>
    </edge>
    <edge id=":J113_4" function="internal">
        <lane id=":J113_4_0" index="0" speed="13.89" length="13.90" shape="2494.06,182.28 2496.71,168.64"/>
    </edge>
    <edge id=":J113_5" function="internal">
        <lane id=":J113_5_0" index="0" speed="8.01" length="3.81" shape="2494.06,182.28 2495.43,178.72"/>
    </edge>
    <edge id=":J113_6" function="internal">
        <lane id=":J113_6_0" index="0" speed="8.01" length="10.15" shape="2495.43,178.72 2497.60,176.42 2500.60,175.38 2504.40,175.61"/>
    </edge>
    <edge id=":J114_0" function="internal">
        <lane id=":J114_0_0" index="0" speed="8.17" length="16.53" shape="198.78,-823.70 196.19,-823.62 193.98,-821.50 192.14,-817.36 190.69,-811.18"/>
    </edge>
    <edge id=":J114_1" function="internal">
        <lane id=":J114_1_0" index="0" speed="13.89" length="17.88" shape="198.78,-823.70 195.12,-823.34 191.02,-821.23 186.09,-819.38 179.97,-819.79"/>
        <lane id=":J114_1_1" index="1" speed="13.89" length="17.88" shape="198.78,-823.70 195.19,-823.85 191.27,-822.84 186.65,-822.04 180.95,-822.84"/>
        <lane id=":J114_1_2" index="2" speed="13.89" length="17.88" shape="198.78,-823.70 195.28,-824.34 191.61,-824.41 187.31,-824.66 181.94,-825.88"/>
        <lane id=":J114_1_3" index="3" speed="13.89" length="17.88" shape="198.78,-823.70 182.92,-828.93"/>
    </edge>
    <edge id=":J114_5" function="internal">
        <lane id=":J114_5_0" index="0" speed="10.82" length="5.78" shape="198.78,-823.70 195.21,-826.12 194.58,-827.45"/>
    </edge>
    <edge id=":J114_15" function="internal">
        <lane id=":J114_15_0" index="0" speed="10.82" length="18.01" shape="194.58,-827.45 193.13,-830.49 192.54,-836.80 193.44,-845.05"/>
    </edge>
    <edge id=":J114_6" function="internal">
        <lane id=":J114_6_0" index="0" speed="9.79" length="19.28" shape="196.59,-844.49 195.74,-837.48 195.99,-832.18 197.34,-828.60 199.80,-826.73"/>
    </edge>
    <edge id=":J114_7" function="internal">
        <lane id=":J114_7_0" index="0" speed="13.89" length="33.83" shape="196.59,-844.49 190.69,-811.18"/>
    </edge>
    <edge id=":J114_8" function="internal">
        <lane id=":J114_8_0" index="0" speed="9.73" length="23.71" shape="196.59,-844.49 194.48,-836.43 191.49,-831.15 187.64,-828.65 182.92,-828.93"/>
    </edge>
    <edge id=":J114_9" function="internal">
        <lane id=":J114_9_0" index="0" speed="6.23" length="9.05" shape="186.87,-841.11 189.36,-840.68 191.29,-841.19 192.65,-842.65 193.44,-845.05"/>
    </edge>
    <edge id=":J114_10" function="internal">
        <lane id=":J114_10_0" index="0" speed="13.89" length="18.19" shape="185.88,-838.06 190.99,-835.35 194.27,-831.96 196.83,-828.78 199.80,-826.73"/>
    </edge>
    <edge id=":J114_11" function="internal">
        <lane id=":J114_11_0" index="0" speed="10.80" length="3.23" shape="183.91,-831.97 186.67,-830.30"/>
    </edge>
    <edge id=":J114_16" function="internal">
        <lane id=":J114_16_0" index="0" speed="10.80" length="20.67" shape="186.67,-830.30 188.04,-829.47 190.54,-825.17 191.43,-819.07 190.69,-811.18"/>
    </edge>
    <edge id=":J114_12" function="internal">
        <lane id=":J114_12_0" index="0" speed="7.83" length="12.11" shape="187.53,-811.73 187.41,-814.23 186.11,-816.40 183.63,-818.26 179.97,-819.79"/>
    </edge>