<?xml version="1.0" encoding="UTF-8"?>

<!-- generated on 2025-08-19 12:03:11 by Eclipse SUMO netedit Version 1.19.0
<configuration xmlns:xsi="http://www.w3.org/2001/XMLSchema-instance" xsi:noNamespaceSchemaLocation="http://sumo.dlr.de/xsd/neteditConfiguration.xsd">

    <input>
        <sumo-net-file value="C:\Users\Lucas\Lucas\traffic_optimization\traffic_optimization\NETWORKS\Hwy7_404_network\Hwy7_404.net.xml"/>
    </input>

    <output>
        <output-file value="C:\Users\Lucas\Lucas\traffic_optimization\traffic_optimization\NETWORKS\Hwy7_404_network\Hwy7_404.net.xml"/>
    </output>

    <processing>
        <geometry.min-radius.fix.railways value="false"/>
        <geometry.max-grade.fix value="false"/>
        <offset.disable-normalization value="true"/>
        <lefthand value="0"/>
    </processing>

    <junctions>
        <no-turnarounds value="true"/>
        <junctions.corner-detail value="5"/>
        <junctions.limit-turn-speed value="5.50"/>
        <rectangular-lane-cut value="0"/>
    </junctions>

    <pedestrian>
        <walkingareas value="0"/>
    </pedestrian>

</configuration>
-->

<net version="1.16" junctionCornerDetail="5" limitTurnSpeed="5.50" xmlns:xsi="http://www.w3.org/2001/XMLSchema-instance" xsi:noNamespaceSchemaLocation="http://sumo.dlr.de/xsd/net_file.xsd">

    <location netOffset="0.00,0.00" convBoundary="-3904.76,-2662.79,3659.30,2383.87" origBoundary="-10000000000.00,-10000000000.00,10000000000.00,10000000000.00" projParameter="!"/>

    <edge id=":J1_0" function="internal">
        <lane id=":J1_0_0" index="0" speed="13.89" length="14.40" shape="-3020.04,481.80 -3033.78,477.48"/>
    </edge>
    <edge id=":J1_1" function="internal">
        <lane id=":J1_1_0" index="0" speed="8.06" length="4.04" shape="-3020.04,481.80 -3023.53,480.13 -3023.64,480.00"/>
    </edge>
    <edge id=":J1_6" function="internal">
        <lane id=":J1_6_0" index="0" speed="8.06" length="10.18" shape="-3023.64,480.00 -3025.65,477.72 -3026.43,474.59 -3025.85,470.72"/>
    </edge>
    <edge id=":J1_2" function="internal">
        <lane id=":J1_2_0" index="0" speed="6.57" length="9.12" shape="-3022.78,471.63 -3023.16,474.12 -3022.67,476.13 -3021.31,477.68 -3019.08,478.75"/>
    </edge>
    <edge id=":J1_3" function="internal">
        <lane id=":J1_3_0" index="0" speed="7.97" length="14.26" shape="-3022.78,471.63 -3024.42,475.19 -3026.80,477.35 -3029.92,478.11 -3033.78,477.48"/>
    </edge>
    <edge id=":J1_4" function="internal">
        <lane id=":J1_4_0" index="0" speed="6.47" length="9.03" shape="-3032.82,474.43 -3030.37,474.83 -3028.39,474.35 -3026.89,472.98 -3025.85,470.72"/>
    </edge>
    <edge id=":J1_5" function="internal">
        <lane id=":J1_5_0" index="0" speed="13.89" length="14.40" shape="-3032.82,474.43 -3019.08,478.75"/>
    </edge>
    <edge id=":J101_0" function="internal">
        <lane id=":J101_0_0" index="0" speed="7.34" length="9.87" shape="-829.23,-1459.78 -831.65,-1459.81 -833.72,-1459.00 -835.44,-1457.35 -836.80,-1454.86"/>
    </edge>
    <edge id=":J101_1" function="internal">
        <lane id=":J101_1_0" index="0" speed="13.89" length="14.31" shape="-829.23,-1459.78 -832.81,-1460.45 -836.24,-1461.20 -839.65,-1462.04 -843.17,-1462.98"/>
    </edge>
    <edge id=":J101_2" function="internal">
        <lane id=":J101_2_0" index="0" speed="13.89" length="13.98" shape="-842.30,-1466.09 -838.84,-1465.15 -835.54,-1464.33 -832.21,-1463.62 -828.68,-1462.96"/>
    </edge>
    <edge id=":J101_3" function="internal">
        <lane id=":J101_3_0" index="0" speed="7.82" length="4.08" shape="-842.30,-1466.09 -838.57,-1464.43"/>
    </edge>
    <edge id=":J101_6" function="internal">
        <lane id=":J101_6_0" index="0" speed="7.82" length="10.57" shape="-838.57,-1464.43 -836.41,-1462.01 -835.82,-1458.82 -836.80,-1454.86"/>
    </edge>
    <edge id=":J101_4" function="internal">
        <lane id=":J101_4_0" index="0" speed="6.27" length="9.04" shape="-839.76,-1456.06 -839.16,-1458.51 -839.53,-1460.48 -840.86,-1461.97 -843.17,-1462.98"/>
    </edge>
    <edge id=":J101_5" function="internal">
        <lane id=":J101_5_0" index="0" speed="8.73" length="14.27" shape="-839.76,-1456.06 -837.82,-1459.58 -835.33,-1461.90 -832.28,-1463.03 -828.68,-1462.96"/>
    </edge>
    <edge id=":J102_0" function="internal">
        <lane id=":J102_0_0" index="0" speed="6.26" length="9.04" shape="2198.86,-179.97 2196.37,-180.36 2194.44,-179.82 2193.08,-178.35 2192.28,-175.96"/>
    </edge>
    <edge id=":J102_1" function="internal">
        <lane id=":J102_1_0" index="0" speed="13.89" length="15.30" shape="2198.86,-179.97 2184.26,-184.56"/>
    </edge>
    <edge id=":J102_2" function="internal">
        <lane id=":J102_2_0" index="0" speed="8.61" length="15.08" shape="2198.86,-179.97 2195.18,-181.69 2192.78,-184.19 2191.66,-187.48 2191.82,-191.56"/>
    </edge>
    <edge id=":J102_3" function="internal">
        <lane id=":J102_3_0" index="0" speed="7.24" length="10.36" shape="2194.97,-190.99 2194.86,-188.19 2195.63,-185.93 2197.27,-184.21 2199.80,-183.03"/>
    </edge>
    <edge id=":J102_4" function="internal">
        <lane id=":J102_4_0" index="0" speed="13.89" length="15.28" shape="2194.97,-190.99 2192.28,-175.96"/>
    </edge>
    <edge id=":J102_5" function="internal">
        <lane id=":J102_5_0" index="0" speed="7.78" length="4.12" shape="2194.97,-190.99 2193.68,-187.09"/>
    </edge>
    <edge id=":J102_12" function="internal">
        <lane id=":J102_12_0" index="0" speed="7.78" length="10.61" shape="2193.68,-187.09 2191.46,-184.71 2188.32,-183.87 2184.26,-184.56"/>
    </edge>
    <edge id=":J102_6" function="internal">
        <lane id=":J102_6_0" index="0" speed="6.23" length="9.05" shape="2185.25,-187.61 2187.74,-187.18 2189.67,-187.70 2191.03,-189.16 2191.82,-191.56"/>
    </edge>
    <edge id=":J102_7" function="internal">
        <lane id=":J102_7_0" index="0" speed="13.89" length="15.25" shape="2185.25,-187.61 2199.80,-183.03"/>
    </edge>
    <edge id=":J102_8" function="internal">
        <lane id=":J102_8_0" index="0" speed="8.67" length="15.10" shape="2185.25,-187.61 2188.92,-185.83 2191.32,-183.30 2192.44,-180.01 2192.28,-175.96"/>
    </edge>
    <edge id=":J102_9" function="internal">
        <lane id=":J102_9_0" index="0" speed="7.30" length="10.43" shape="2189.13,-176.52 2189.24,-179.32 2188.46,-181.59 2186.81,-183.34 2184.26,-184.56"/>
    </edge>
    <edge id=":J102_10" function="internal">
        <lane id=":J102_10_0" index="0" speed="13.89" length="15.28" shape="2189.13,-176.52 2191.82,-191.56"/>
    </edge>
    <edge id=":J102_11" function="internal">
        <lane id=":J102_11_0" index="0" speed="7.80" length="4.09" shape="2189.13,-176.52 2190.42,-180.40"/>
    </edge>
    <edge id=":J102_13" function="internal">
        <lane id=":J102_13_0" index="0" speed="7.80" length="10.58" shape="2190.42,-180.40 2192.63,-182.78 2195.75,-183.66 2199.80,-183.03"/>
    </edge>
    <edge id=":J103_0" function="internal">
        <lane id=":J103_0_0" index="0" speed="6.25" length="9.04" shape="2281.56,-642.84 2279.07,-643.24 2277.15,-642.70 2275.79,-641.24 2274.99,-638.84"/>
    </edge>
    <edge id=":J103_1" function="internal">
        <lane id=":J103_1_0" index="0" speed="13.89" length="15.38" shape="2281.56,-642.84 2266.91,-647.51"/>
    </edge>
    <edge id=":J103_2" function="internal">
        <lane id=":J103_2_0" index="0" speed="8.71" length="4.32" shape="2281.56,-642.84 2277.89,-644.57 2277.71,-644.76"/>
    </edge>
    <edge id=":J103_12" function="internal">
        <lane id=":J103_12_0" index="0" speed="8.71" length="10.86" shape="2277.71,-644.76 2275.48,-647.10 2274.32,-650.41 2274.43,-654.52"/>
    </edge>
    <edge id=":J103_3" function="internal">
        <lane id=":J103_3_0" index="0" speed="7.33" length="10.51" shape="2277.58,-654.01 2277.51,-651.15 2278.31,-648.85 2279.97,-647.11 2282.51,-645.91"/>
    </edge>
    <edge id=":J103_4" function="internal">
        <lane id=":J103_4_0" index="0" speed="13.89" length="15.39" shape="2277.58,-654.01 2274.99,-638.84"/>
    </edge>
    <edge id=":J103_5" function="internal">
        <lane id=":J103_5_0" index="0" speed="7.75" length="14.81" shape="2277.58,-654.01 2276.34,-650.05 2274.14,-647.64 2271.00,-646.80 2266.91,-647.51"/>
    </edge>
    <edge id=":J103_6" function="internal">
        <lane id=":J103_6_0" index="0" speed="6.20" length="9.05" shape="2267.90,-650.55 2270.40,-650.12 2272.32,-650.64 2273.66,-652.10 2274.43,-654.52"/>
    </edge>
    <edge id=":J103_7" function="internal">
        <lane id=":J103_7_0" index="0" speed="13.89" length="15.33" shape="2267.90,-650.55 2282.51,-645.91"/>
    </edge>
    <edge id=":J103_8" function="internal">
        <lane id=":J103_8_0" index="0" speed="8.70" length="4.25" shape="2267.90,-650.55 2271.60,-648.76 2271.69,-648.66"/>
    </edge>
    <edge id=":J103_13" function="internal">
        <lane id=":J103_13_0" index="0" speed="8.70" length="10.93" shape="2271.69,-648.66 2274.01,-646.21 2275.15,-642.90 2274.99,-638.84"/>
    </edge>
    <edge id=":J103_9" function="internal">
        <lane id=":J103_9_0" index="0" speed="7.34" length="10.52" shape="2271.84,-639.40 2271.95,-642.21 2271.16,-644.50 2269.48,-646.27 2266.91,-647.51"/>
    </edge>
    <edge id=":J103_10" function="internal">
        <lane id=":J103_10_0" index="0" speed="13.89" length="15.34" shape="2271.84,-639.40 2274.43,-654.52"/>
    </edge>
    <edge id=":J103_11" function="internal">
        <lane id=":J103_11_0" index="0" speed="7.80" length="14.69" shape="2271.84,-639.40 2273.13,-643.29 2275.34,-645.67 2278.47,-646.55 2282.51,-645.91"/>
    </edge>
    <edge id=":J104_0" function="internal">
        <lane id=":J104_0_0" index="0" speed="13.89" length="19.36" shape="2328.94,-965.12 2325.19,-946.12"/>
    </edge>
    <edge id=":J104_1" function="internal">
        <lane id=":J104_1_0" index="0" speed="4.85" length="1.91" shape="2328.94,-965.12 2327.84,-963.55"/>
    </edge>
    <edge id=":J104_4" function="internal">
        <lane id=":J104_4_0" index="0" speed="4.85" length="7.42" shape="2327.84,-963.55 2327.60,-963.22 2325.37,-962.85 2323.27,-963.87 2322.35,-966.10"/>
    </edge>
    <edge id=":J104_2" function="internal">
        <lane id=":J104_2_0" index="0" speed="13.89" length="19.48" shape="2322.03,-946.64 2322.42,-951.06 2322.48,-956.34 2322.40,-961.64 2322.35,-966.10"/>
    </edge>
    <edge id=":J104_3" function="internal">
        <lane id=":J104_3_0" index="0" speed="13.89" length="19.48" shape="2322.03,-946.64 2325.81,-965.75"/>
    </edge>
    <edge id=":J105_0" function="internal">
        <lane id=":J105_0_0" index="0" speed="6.67" length="8.52" shape="2347.88,-1032.57 2345.50,-1032.41 2343.66,-1031.61 2342.37,-1030.18 2341.62,-1028.11"/>
    </edge>
    <edge id=":J105_1" function="internal">
        <lane id=":J105_1_0" index="0" speed="6.87" length="11.15" shape="2347.88,-1032.57 2344.22,-1033.14 2341.76,-1034.34 2340.49,-1036.18 2340.41,-1038.66"/>
    </edge>
    <edge id=":J105_2" function="internal">
        <lane id=":J105_2_0" index="0" speed="13.89" length="10.15" shape="2343.56,-1038.08 2341.62,-1028.11"/>
    </edge>
    <edge id=":J105_3" function="internal">
        <lane id=":J105_3_0" index="0" speed="13.89" length="10.10" shape="2338.48,-1028.74 2340.41,-1038.66"/>
    </edge>
    <edge id=":J107_0" function="internal">
        <lane id=":J107_0_0" index="0" speed="7.51" length="10.27" shape="2146.47,117.38 2143.47,117.83 2141.20,118.90 2139.65,120.57 2138.81,122.86"/>
    </edge>
    <edge id=":J107_1" function="internal">
        <lane id=":J107_1_0" index="0" speed="7.66" length="15.11" shape="2146.47,117.38 2142.21,116.95 2139.42,115.25 2138.10,112.25 2138.24,107.97"/>
    </edge>
    <edge id=":J107_2" function="internal">
        <lane id=":J107_2_0" index="0" speed="6.08" length="9.06" shape="2141.39,108.54 2141.31,111.11 2142.10,112.90 2143.77,113.93 2146.33,114.18"/>
    </edge>
    <edge id=":J107_3" function="internal">
        <lane id=":J107_3_0" index="0" speed="13.89" length="14.56" shape="2141.39,108.54 2138.81,122.86"/>
    </edge>
    <edge id=":J107_4" function="internal">
        <lane id=":J107_4_0" index="0" speed="13.89" length="14.55" shape="2135.67,122.29 2138.24,107.97"/>
    </edge>
    <edge id=":J107_5" function="internal">
        <lane id=":J107_5_0" index="0" speed="8.86" length="3.75" shape="2135.67,122.29 2136.86,118.90 2136.96,118.78"/>
    </edge>
    <edge id=":J107_6" function="internal">
        <lane id=":J107_6_0" index="0" speed="8.86" length="10.87" shape="2136.96,118.78 2139.03,116.41 2142.19,114.84 2146.33,114.18"/>
    </edge>
    <edge id=":J108_0" function="internal">
        <lane id=":J108_0_0" index="0" speed="6.79" length="9.37" shape="2461.80,-99.41 2459.37,-99.73 2457.33,-99.17 2455.70,-97.73 2454.47,-95.40"/>
    </edge>
    <edge id=":J108_1" function="internal">
        <lane id=":J108_1_0" index="0" speed="13.89" length="14.39" shape="2461.80,-99.41 2448.01,-103.53"/>
    </edge>
    <edge id=":J108_2" function="internal">
        <lane id=":J108_2_0" index="0" speed="13.89" length="14.34" shape="2448.95,-106.59 2462.69,-102.48"/>
    </edge>
    <edge id=":J108_3" function="internal">
        <lane id=":J108_3_0" index="0" speed="7.90" length="3.98" shape="2448.95,-106.59 2452.56,-104.89"/>
    </edge>
    <edge id=":J108_6" function="internal">
        <lane id=":J108_6_0" index="0" speed="7.90" length="10.44" shape="2452.56,-104.89 2454.68,-102.46 2455.32,-99.30 2454.47,-95.40"/>
    </edge>
    <edge id=":J108_4" function="internal">
        <lane id=":J108_4_0" index="0" speed="6.38" length="9.04" shape="2451.47,-96.52 2452.00,-98.96 2451.60,-100.94 2450.27,-102.46 2448.01,-103.53"/>
    </edge>
    <edge id=":J108_5" function="internal">
        <lane id=":J108_5_0" index="0" speed="8.24" length="14.26" shape="2451.47,-96.52 2453.34,-100.01 2455.83,-102.17 2458.95,-102.99 2462.69,-102.48"/>
    </edge>
    <edge id=":J109_0" function="internal">
        <lane id=":J109_0_0" index="0" speed="6.25" length="9.05" shape="24.01,156.08 21.52,155.67 19.59,156.19 18.22,157.64 17.41,160.03"/>
    </edge>
    <edge id=":J109_1" function="internal">
        <lane id=":J109_1_0" index="0" speed="13.89" length="14.94" shape="24.01,156.08 9.64,151.99"/>
    </edge>
    <edge id=":J109_2" function="internal">
        <lane id=":J109_2_0" index="0" speed="8.60" length="14.91" shape="24.01,156.08 20.35,154.34 17.95,151.85 16.83,148.62 16.97,144.65"/>
    </edge>
    <edge id=":J109_3" function="internal">
        <lane id=":J109_3_0" index="0" speed="7.22" length="10.23" shape="20.12,145.21 20.03,147.93 20.80,150.13 22.46,151.84 24.99,153.04"/>
    </edge>
    <edge id=":J109_4" function="internal">
        <lane id=":J109_4_0" index="0" speed="13.89" length="15.07" shape="20.12,145.21 17.41,160.03"/>
    </edge>
    <edge id=":J109_5" function="internal">
        <lane id=":J109_5_0" index="0" speed="7.89" length="4.14" shape="20.12,145.21 18.86,149.01 18.76,149.12"/>
    </edge>
    <edge id=":J109_12" function="internal">
        <lane id=":J109_12_0" index="0" speed="7.89" length="10.32" shape="18.76,149.12 16.69,151.40 13.62,152.40 9.64,151.99"/>
    </edge>
    <edge id=":J109_6" function="internal">
        <lane id=":J109_6_0" index="0" speed="6.36" length="9.04" shape="10.42,148.87 12.91,149.13 14.83,148.51 16.18,147.02 16.97,144.65"/>
    </edge>
    <edge id=":J109_7" function="internal">
        <lane id=":J109_7_0" index="0" speed="13.89" length="15.15" shape="10.42,148.87 24.99,153.04"/>
    </edge>
    <edge id=":J109_8" function="internal">
        <lane id=":J109_8_0" index="0" speed="8.36" length="14.82" shape="10.42,148.87 14.10,150.39 16.50,152.75 17.60,155.97 17.41,160.03"/>
    </edge>
    <edge id=":J109_9" function="internal">
        <lane id=":J109_9_0" index="0" speed="6.93" length="9.88" shape="14.27,159.45 14.40,156.73 13.67,154.57 12.08,152.99 9.64,151.99"/>
    </edge>
    <edge id=":J109_10" function="internal">
        <lane id=":J109_10_0" index="0" speed="13.89" length="15.05" shape="14.27,159.45 16.97,144.65"/>
    </edge>
    <edge id=":J109_11" function="internal">
        <lane id=":J109_11_0" index="0" speed="7.79" length="4.10" shape="14.27,159.45 15.58,155.57"/>
    </edge>
    <edge id=":J109_13" function="internal">
        <lane id=":J109_13_0" index="0" speed="7.79" length="10.59" shape="15.58,155.57 17.81,153.20 20.94,152.36 24.99,153.04"/>
    </edge>
    <edge id=":J11_0" function="internal">
        <lane id=":J11_0_0" index="0" speed="6.35" length="9.04" shape="-2387.87,2046.24 -2390.36,2046.03 -2392.27,2046.69 -2393.58,2048.21 -2394.30,2050.61"/>
    </edge>
    <edge id=":J11_1" function="internal">
        <lane id=":J11_1_0" index="0" speed="13.89" length="15.21" shape="-2387.87,2046.24 -2402.55,2042.26"/>
    </edge>
    <edge id=":J11_2" function="internal">
        <lane id=":J11_2_0" index="0" speed="8.34" length="14.84" shape="-2387.87,2046.24 -2391.59,2044.79 -2394.03,2042.47 -2395.18,2039.27 -2395.04,2035.19"/>
    </edge>
    <edge id=":J11_3" function="internal">
        <lane id=":J11_3_0" index="0" speed="6.91" length="9.89" shape="-2391.89,2035.74 -2391.99,2038.47 -2391.23,2040.61 -2389.61,2042.16 -2387.14,2043.12"/>
    </edge>
    <edge id=":J11_4" function="internal">
        <lane id=":J11_4_0" index="0" speed="13.89" length="15.07" shape="-2391.89,2035.74 -2394.30,2050.61"/>
    </edge>
    <edge id=":J11_5" function="internal">
        <lane id=":J11_5_0" index="0" speed="7.79" length="4.11" shape="-2391.89,2035.74 -2393.16,2039.65"/>
    </edge>
    <edge id=":J11_12" function="internal">
        <lane id=":J11_12_0" index="0" speed="7.79" length="10.60" shape="-2393.16,2039.65 -2395.36,2042.03 -2398.49,2042.91 -2402.55,2042.26"/>
    </edge>
    <edge id=":J11_6" function="internal">
        <lane id=":J11_6_0" index="0" speed="6.24" length="9.05" shape="-2401.60,2039.21 -2399.10,2039.60 -2397.18,2039.07 -2395.83,2037.60 -2395.04,2035.19"/>
    </edge>
    <edge id=":J11_7" function="internal">
        <lane id=":J11_7_0" index="0" speed="13.89" length="14.97" shape="-2401.60,2039.21 -2387.14,2043.12"/>
    </edge>
    <edge id=":J11_8" function="internal">
        <lane id=":J11_8_0" index="0" speed="8.69" length="14.98" shape="-2401.60,2039.21 -2397.91,2040.92 -2395.47,2043.39 -2394.26,2046.62 -2394.30,2050.61"/>
    </edge>
    <edge id=":J11_9" function="internal">
        <lane id=":J11_9_0" index="0" speed="7.32" length="10.36" shape="-2397.47,2050.13 -2397.44,2047.39 -2398.28,2045.16 -2399.98,2043.45 -2402.55,2042.26"/>
    </edge>
    <edge id=":J11_10" function="internal">
        <lane id=":J11_10_0" index="0" speed="13.89" length="15.13" shape="-2397.47,2050.13 -2395.04,2035.19"/>
    </edge>
    <edge id=":J11_11" function="internal">
        <lane id=":J11_11_0" index="0" speed="7.87" length="4.21" shape="-2397.47,2050.13 -2396.31,2046.29 -2396.18,2046.14"/>
    </edge>
    <edge id=":J11_13" function="internal">
        <lane id=":J11_13_0" index="0" speed="7.87" length="10.28" shape="-2396.18,2046.14 -2394.20,2043.84 -2391.15,2042.78 -2387.14,2043.12"/>
    </edge>
    <edge id=":J110_0" function="internal">
        <lane id=":J110_0_0" index="0" speed="6.23" length="9.05" shape="113.94,-342.33 111.44,-342.77 109.52,-342.26 108.15,-340.81 107.35,-338.41"/>
    </edge>
    <edge id=":J110_1" function="internal">
        <lane id=":J110_1_0" index="0" speed="13.89" length="15.30" shape="113.94,-342.33 99.37,-347.00"/>
    </edge>
    <edge id=":J110_2" function="internal">
        <lane id=":J110_2_0" index="0" speed="8.71" length="15.15" shape="113.94,-342.33 110.27,-344.13 107.87,-346.68 106.74,-349.99 106.89,-354.05"/>
    </edge>
    <edge id=":J110_3" function="internal">
        <lane id=":J110_3_0" index="0" speed="7.35" length="10.51" shape="110.04,-353.50 109.94,-350.68 110.72,-348.39 112.39,-346.62 114.93,-345.37"/>
    </edge>
    <edge id=":J110_4" function="internal">
        <lane id=":J110_4_0" index="0" speed="13.89" length="15.33" shape="110.04,-353.50 107.35,-338.41"/>
    </edge>
    <edge id=":J110_5" function="internal">
        <lane id=":J110_5_0" index="0" speed="7.79" length="4.11" shape="110.04,-353.50 108.76,-349.60"/>
    </edge>
    <edge id=":J110_12" function="internal">
        <lane id=":J110_12_0" index="0" speed="7.79" length="10.60" shape="108.76,-349.60 106.55,-347.21 103.42,-346.35 99.37,-347.00"/>
    </edge>
    <edge id=":J110_6" function="internal">
        <lane id=":J110_6_0" index="0" speed="6.25" length="9.05" shape="100.33,-350.06 102.82,-349.65 104.74,-350.19 106.10,-351.65 106.89,-354.05"/>
    </edge>
    <edge id=":J110_7" function="internal">
        <lane id=":J110_7_0" index="0" speed="13.89" length="15.34" shape="100.33,-350.06 114.93,-345.37"/>
    </edge>
    <edge id=":J110_8" function="internal">
        <lane id=":J110_8_0" index="0" speed="8.64" length="15.12" shape="100.33,-350.06 104.00,-348.32 106.40,-345.79 107.52,-342.49 107.35,-338.41"/>
    </edge>
    <edge id=":J110_9" function="internal">
        <lane id=":J110_9_0" index="0" speed="7.26" length="10.41" shape="104.20,-338.98 104.32,-341.79 103.55,-344.07 101.90,-345.80 99.37,-347.00"/>
    </edge>
    <edge id=":J110_10" function="internal">
        <lane id=":J110_10_0" index="0" speed="13.89" length="15.31" shape="104.20,-338.98 106.89,-354.05"/>
    </edge>
    <edge id=":J110_11" function="internal">
        <lane id=":J110_11_0" index="0" speed="7.77" length="4.12" shape="104.20,-338.98 105.51,-342.89"/>
    </edge>
    <edge id=":J110_13" function="internal">
        <lane id=":J110_13_0" index="0" speed="7.77" length="10.62" shape="105.51,-342.89 107.73,-345.26 110.87,-346.09 114.93,-345.37"/>
    </edge>
    <edge id=":J111_0" function="internal">
        <lane id=":J111_0_0" index="0" speed="6.53" length="8.23" shape="2264.54,117.07 2263.87,114.96 2262.69,113.48 2260.99,112.64 2258.78,112.43"/>
    </edge>
    <edge id=":J111_1" function="internal">
        <lane id=":J111_1_0" index="0" speed="8.92" length="12.58" shape="2264.54,117.07 2264.36,113.65 2265.05,110.69 2266.62,108.20 2269.06,106.18"/>
    </edge>
    <edge id=":J111_2" function="internal">
        <lane id=":J111_2_0" index="0" speed="7.49" length="8.72" shape="2270.75,108.90 2269.09,110.29 2268.04,112.02 2267.59,114.09 2267.75,116.50"/>
    </edge>
    <edge id=":J111_3" function="internal">
        <lane id=":J111_3_0" index="0" speed="13.89" length="12.65" shape="2270.75,108.90 2267.79,110.53 2265.04,111.57 2262.16,112.16 2258.78,112.43"/>
    </edge>
    <edge id=":J111_4" function="internal">
        <lane id=":J111_4_0" index="0" speed="13.89" length="11.05" shape="2258.64,109.23 2261.77,109.03 2264.13,108.61 2266.34,107.74 2269.06,106.18"/>
    </edge>
    <edge id=":J111_5" function="internal">
        <lane id=":J111_5_0" index="0" speed="8.06" length="3.49" shape="2258.64,109.23 2262.11,109.56"/>
    </edge>
    <edge id=":J111_6" function="internal">
        <lane id=":J111_6_0" index="0" speed="8.06" length="9.45" shape="2262.11,109.56 2264.79,110.88 2266.67,113.19 2267.75,116.50"/>
    </edge>
    <edge id=":J112_0" function="internal">
        <lane id=":J112_0_0" index="0" speed="9.62" length="10.44" shape="2415.82,24.64 2412.94,23.82 2410.30,23.60 2407.90,23.97 2405.74,24.93"/>
    </edge>
    <edge id=":J112_1" function="internal">
        <lane id=":J112_1_0" index="0" speed="8.00" length="14.20" shape="2415.82,24.64 2412.40,22.78 2410.40,20.28 2409.81,17.12 2410.64,13.32"/>
    </edge>
    <edge id=":J112_2" function="internal">
        <lane id=":J112_2_0" index="0" speed="6.51" length="9.03" shape="2413.64,14.44 2413.11,16.86 2413.49,18.86 2414.76,20.46 2416.94,21.64"/>
    </edge>
    <edge id=":J112_3" function="internal">
        <lane id=":J112_3_0" index="0" speed="13.79" length="13.40" shape="2413.64,14.44 2412.27,17.68 2410.63,20.45 2408.52,22.84 2405.74,24.93"/>
    </edge>
    <edge id=":J112_4" function="internal">
        <lane id=":J112_4_0" index="0" speed="12.73" length="11.37" shape="2404.05,22.21 2406.63,20.37 2408.29,18.54 2409.47,16.32 2410.64,13.32"/>
    </edge>
    <edge id=":J112_5" function="internal">
        <lane id=":J112_5_0" index="0" speed="10.83" length="3.11" shape="2404.05,22.21 2406.88,20.92"/>
    </edge>
    <edge id=":J112_6" function="internal">
        <lane id=":J112_6_0" index="0" speed="10.83" length="10.24" shape="2406.88,20.92 2409.97,20.39 2413.32,20.63 2416.94,21.64"/>
    </edge>
    <edge id=":J113_0" function="internal">
        <lane id=":J113_0_0" index="0" speed="6.51" length="8.88" shape="2503.77,178.74 2501.35,178.60 2499.44,179.26 2498.06,180.73 2497.19,182.99"/>
    </edge>
    <edge id=":J113_1" function="internal">
        <lane id=":J113_1_0" index="0" speed="8.05" length="13.93" shape="2503.77,178.74 2500.18,177.47 2497.80,175.37 2496.65,172.42 2496.71,168.64"/>
    </edge>
    <edge id=":J113_2" function="internal">
        <lane id=":J113_2_0" index="0" speed="6.57" length="8.92" shape="2499.87,169.14 2499.83,171.56 2500.57,173.45 2502.10,174.79 2504.40,175.61"/>
    </edge>
    <edge id=":J113_3" function="internal">
        <lane id=":J113_3_0" index="0" speed="13.89" length="14.11" shape="2499.87,169.14 2497.19,182.99"/>
    </edge>
    <edge id=":J113_4" function="internal">
        <lane id=":J113_4_0" index="0" speed="13.89" length="13.90" shape="2494.06,182.28 2496.71,168.64"/>
    </edge>
    <edge id=":J113_5" function="internal">
        <lane id=":J113_5_0" index="0" speed="8.01" length="3.81" shape="2494.06,182.28 2495.43,178.72"/>
    </edge>
    <edge id=":J113_6" function="internal">
        <lane id=":J113_6_0" index="0" speed="8.01" length="10.15" shape="2495.43,178.72 2497.60,176.42 2500.60,175.38 2504.40,175.61"/>
    </edge>
    <edge id=":J114_0" function="internal">
        <lane id=":J114_0_0" index="0" speed="6.20" length="9.05" shape="198.78,-823.70 196.28,-824.15 194.36,-823.66 193.00,-822.20 192.21,-819.80"/>
    </edge>
    <edge id=":J114_1" function="internal">
        <lane id=":J114_1_0" index="0" speed="13.89" length="15.37" shape="198.78,-823.70 184.18,-828.52"/>
    </edge>
    <edge id=":J114_2" function="internal">
        <lane id=":J114_2_0" index="0" speed="8.75" length="15.22" shape="198.78,-823.70 195.10,-825.52 192.71,-828.10 191.59,-831.43 191.74,-835.51"/>
    </edge>
    <edge id=":J114_3" function="internal">
        <lane id=":J114_3_0" index="0" speed="7.39" length="10.60" shape="194.89,-834.95 194.78,-832.11 195.57,-829.80 197.24,-828.00 199.80,-826.73"/>
    </edge>
    <edge id=":J114_4" function="internal">
        <lane id=":J114_4_0" index="0" speed="13.89" length="15.39" shape="194.89,-834.95 192.21,-819.80"/>
    </edge>
    <edge id=":J114_5" function="internal">
        <lane id=":J114_5_0" index="0" speed="7.78" length="4.12" shape="194.89,-834.95 193.60,-831.04"/>
    </edge>
    <edge id=":J114_12" function="internal">
        <lane id=":J114_12_0" index="0" speed="7.78" length="10.62" shape="193.60,-831.04 191.38,-828.66 188.24,-827.82 184.18,-828.52"/>
    </edge>
    <edge id=":J114_6" function="internal">
        <lane id=":J114_6_0" index="0" speed="6.23" length="9.05" shape="185.17,-831.57 187.66,-831.14 189.59,-831.65 190.95,-833.11 191.74,-835.51"/>
    </edge>
    <edge id=":J114_7" function="internal">
        <lane id=":J114_7_0" index="0" speed="13.89" length="15.41" shape="185.17,-831.57 199.80,-826.73"/>
    </edge>
    <edge id=":J114_8" function="internal">
        <lane id=":J114_8_0" index="0" speed="8.71" length="15.20" shape="185.17,-831.57 188.84,-829.78 191.24,-827.23 192.36,-823.90 192.21,-819.80"/>
    </edge>
    <edge id=":J114_9" function="internal">
        <lane id=":J114_9_0" index="0" speed="7.35" length="10.55" shape="189.05,-820.35 189.16,-823.20 188.38,-825.51 186.72,-827.29 184.18,-828.52"/>
    </edge>
    <edge id=":J114_10" function="internal">
        <lane id=":J114_10_0" index="0" speed="13.89" length="15.40" shape="189.05,-820.35 191.74,-835.51"/>
    </edge>
    <edge id=":J114_11" function="internal">
        <lane id=":J114_11_0" index="0" speed="7.76" length="4.15" shape="189.05,-820.35 190.35,-824.29"/>
    </edge>
    <edge id=":J114_13" function="internal">
        <lane id=":J114_13_0" index="0" speed="7.76" length="10.65" shape="190.35,-824.29 192.57,-826.67 195.72,-827.48 199.80,-826.73"/>
    </edge>
    <edge id=":J115_0" function="internal">
        <lane id=":J115_0_0" index="0" speed="7.55" length="9.04" shape="2619.81,206.77 2619.13,204.64 2617.88,202.97 2616.05,201.75 2613.65,200.98"/>
    </edge>
    <edge id=":J115_1" function="internal">
        <lane id=":J115_1_0" index="0" speed="13.89" length="12.99" shape="2619.81,206.77 2619.42,203.36 2619.45,200.30 2619.90,197.28 2620.76,193.94"/>
    </edge>
    <edge id=":J115_2" function="internal">
        <lane id=":J115_2_0" index="0" speed="13.89" length="11.56" shape="2623.83,194.85 2622.99,197.96 2622.56,200.49 2622.56,203.05 2622.98,206.23"/>
    </edge>
    <edge id=":J115_3" function="internal">
        <lane id=":J115_3_0" index="0" speed="8.02" length="3.61" shape="2623.83,194.85 2622.34,198.13"/>
    </edge>
    <edge id=":J115_6" function="internal">
        <lane id=":J115_6_0" index="0" speed="8.02" length="9.70" shape="2622.34,198.13 2620.15,200.25 2617.25,201.20 2613.65,200.98"/>
    </edge>
    <edge id=":J115_4" function="internal">
        <lane id=":J115_4_0" index="0" speed="6.52" length="8.47" shape="2614.28,197.84 2616.57,197.98 2618.42,197.38 2619.81,196.03 2620.76,193.94"/>
    </edge>
    <edge id=":J115_5" function="internal">
        <lane id=":J115_5_0" index="0" speed="8.93" length="12.92" shape="2614.28,197.84 2617.66,198.94 2620.23,200.70 2622.00,203.14 2622.98,206.23"/>
    </edge>
    <edge id=":J117_0" function="internal">