<?xml version="1.0" encoding="UTF-8"?>

<!-- generated on 2025-08-14 10:41:33 by Eclipse SUMO netedit Version 1.19.0
<configuration xmlns:xsi="http://www.w3.org/2001/XMLSchema-instance" xsi:noNamespaceSchemaLocation="http://sumo.dlr.de/xsd/neteditConfiguration.xsd">

    <input>
        <sumo-net-file value="C:\Users\Lucas\Lucas\traffic_optimization\traffic_optimization\NETWORKS\Hwy7_404_network\Hwy7_404.net.xml"/>
    </input>

    <output>
        <output-file value="C:\Users\Lucas\Lucas\traffic_optimization\traffic_optimization\NETWORKS\Hwy7_404_network\Hwy7_404.net.xml"/>
    </output>

    <processing>
        <geometry.min-radius.fix.railways value="false"/>
        <geometry.max-grade.fix value="false"/>
        <offset.disable-normalization value="true"/>
        <lefthand value="0"/>
    </processing>

    <junctions>
        <no-turnarounds value="true"/>
        <junctions.corner-detail value="5"/>
        <junctions.limit-turn-speed value="5.50"/>
        <rectangular-lane-cut value="0"/>
    </junctions>

    <pedestrian>
        <walkingareas value="0"/>
    </pedestrian>

</configuration>
-->

<net version="1.16" junctionCornerDetail="5" limitTurnSpeed="5.50" xmlns:xsi="http://www.w3.org/2001/XMLSchema-instance" xsi:noNamespaceSchemaLocation="http://sumo.dlr.de/xsd/net_file.xsd">

    <location netOffset="0.00,0.00" convBoundary="-3811.91,-2136.79,3644.24,2383.87" origBoundary="-10000000000.00,-10000000000.00,10000000000.00,10000000000.00" projParameter="!"/>

    <edge id=":J0_0" function="internal">
        <lane id=":J0_0_0" index="0" speed="6.11" length="6.79" shape="-2673.22,931.65 -2674.78,930.70 -2675.75,929.46 -2676.15,927.94 -2675.97,926.13"/>
    </edge>
    <edge id=":J0_1" function="internal">
        <lane id=":J0_1_0" index="0" speed="3.92" length="2.26" shape="-2672.86,926.88 -2672.92,927.48 -2672.78,927.99 -2672.46,928.40 -2671.94,928.72"/>
    </edge>
    <edge id=":J1_0" function="internal">
        <lane id=":J1_0_0" index="0" speed="13.89" length="14.40" shape="-3020.05,481.81 -3033.78,477.48"/>
    </edge>
    <edge id=":J1_1" function="internal">
        <lane id=":J1_1_0" index="0" speed="8.06" length="4.03" shape="-3020.05,481.81 -3023.53,480.13 -3023.64,480.00"/>
    </edge>
    <edge id=":J1_6" function="internal">
        <lane id=":J1_6_0" index="0" speed="8.06" length="10.18" shape="-3023.64,480.00 -3025.66,477.72 -3026.43,474.59 -3025.85,470.72"/>
    </edge>
    <edge id=":J1_2" function="internal">
        <lane id=":J1_2_0" index="0" speed="6.57" length="9.12" shape="-3022.78,471.63 -3023.16,474.12 -3022.67,476.13 -3021.31,477.68 -3019.08,478.75"/>
    </edge>
    <edge id=":J1_3" function="internal">
        <lane id=":J1_3_0" index="0" speed="7.97" length="14.26" shape="-3022.78,471.63 -3024.42,475.19 -3026.80,477.35 -3029.92,478.11 -3033.78,477.48"/>
    </edge>
    <edge id=":J1_4" function="internal">
        <lane id=":J1_4_0" index="0" speed="6.47" length="9.03" shape="-3032.82,474.43 -3030.37,474.83 -3028.39,474.35 -3026.89,472.98 -3025.85,470.72"/>
    </edge>
    <edge id=":J1_5" function="internal">
        <lane id=":J1_5_0" index="0" speed="13.89" length="14.40" shape="-3032.82,474.43 -3019.08,478.75"/>
    </edge>
    <edge id=":J101_0" function="internal">
        <lane id=":J101_0_0" index="0" speed="7.34" length="9.87" shape="-829.23,-1459.78 -831.65,-1459.81 -833.72,-1459.00 -835.44,-1457.35 -836.80,-1454.86"/>
    </edge>
    <edge id=":J101_1" function="internal">
        <lane id=":J101_1_0" index="0" speed="13.89" length="14.31" shape="-829.23,-1459.78 -832.81,-1460.45 -836.24,-1461.20 -839.65,-1462.04 -843.17,-1462.98"/>
    </edge>
    <edge id=":J101_2" function="internal">
        <lane id=":J101_2_0" index="0" speed="13.89" length="13.98" shape="-842.30,-1466.09 -838.84,-1465.15 -835.54,-1464.33 -832.21,-1463.62 -828.68,-1462.96"/>
    </edge>
    <edge id=":J101_3" function="internal">
        <lane id=":J101_3_0" index="0" speed="7.82" length="4.08" shape="-842.30,-1466.09 -838.57,-1464.43"/>
    </edge>
    <edge id=":J101_6" function="internal">
        <lane id=":J101_6_0" index="0" speed="7.82" length="10.57" shape="-838.57,-1464.43 -836.41,-1462.01 -835.82,-1458.82 -836.80,-1454.86"/>
    </edge>
    <edge id=":J101_4" function="internal">
        <lane id=":J101_4_0" index="0" speed="6.27" length="9.04" shape="-839.76,-1456.06 -839.16,-1458.51 -839.53,-1460.48 -840.86,-1461.97 -843.17,-1462.98"/>
    </edge>
    <edge id=":J101_5" function="internal">
        <lane id=":J101_5_0" index="0" speed="8.73" length="14.27" shape="-839.76,-1456.06 -837.82,-1459.58 -835.33,-1461.90 -832.28,-1463.03 -828.68,-1462.96"/>
    </edge>
    <edge id=":J102_0" function="internal">
        <lane id=":J102_0_0" index="0" speed="6.26" length="9.04" shape="2198.86,-179.97 2196.37,-180.36 2194.44,-179.82 2193.08,-178.35 2192.28,-175.96"/>
    </edge>
    <edge id=":J102_1" function="internal">
        <lane id=":J102_1_0" index="0" speed="13.89" length="15.31" shape="2198.86,-179.97 2184.25,-184.56"/>
    </edge>
    <edge id=":J102_2" function="internal">
        <lane id=":J102_2_0" index="0" speed="8.63" length="15.09" shape="2198.86,-179.97 2195.18,-181.69 2192.78,-184.19 2191.65,-187.48 2191.80,-191.57"/>
    </edge>
    <edge id=":J102_3" function="internal">
        <lane id=":J102_3_0" index="0" speed="7.25" length="10.38" shape="2194.96,-191.01 2194.85,-188.20 2195.62,-185.93 2197.27,-184.21 2199.80,-183.03"/>
    </edge>
    <edge id=":J102_4" function="internal">
        <lane id=":J102_4_0" index="0" speed="13.89" length="15.29" shape="2194.96,-191.01 2192.28,-175.96"/>
    </edge>
    <edge id=":J102_5" function="internal">
        <lane id=":J102_5_0" index="0" speed="7.77" length="4.12" shape="2194.96,-191.01 2193.67,-187.10"/>
    </edge>
    <edge id=":J102_12" function="internal">
        <lane id=":J102_12_0" index="0" speed="7.77" length="10.62" shape="2193.67,-187.10 2191.46,-184.72 2188.32,-183.87 2184.25,-184.56"/>
    </edge>
    <edge id=":J102_6" function="internal">
        <lane id=":J102_6_0" index="0" speed="6.23" length="9.05" shape="2185.24,-187.61 2187.73,-187.18 2189.66,-187.70 2191.01,-189.16 2191.80,-191.57"/>
    </edge>
    <edge id=":J102_7" function="internal">
        <lane id=":J102_7_0" index="0" speed="13.89" length="15.26" shape="2185.24,-187.61 2199.80,-183.03"/>
    </edge>
    <edge id=":J102_8" function="internal">
        <lane id=":J102_8_0" index="0" speed="8.67" length="15.11" shape="2185.24,-187.61 2188.92,-185.84 2191.32,-183.30 2192.44,-180.01 2192.28,-175.96"/>
    </edge>
    <edge id=":J102_9" function="internal">
        <lane id=":J102_9_0" index="0" speed="7.30" length="10.44" shape="2189.13,-176.52 2189.24,-179.32 2188.46,-181.59 2186.80,-183.34 2184.25,-184.56"/>
    </edge>
    <edge id=":J102_10" function="internal">
        <lane id=":J102_10_0" index="0" speed="13.89" length="15.28" shape="2189.13,-176.52 2191.80,-191.57"/>
    </edge>
    <edge id=":J102_11" function="internal">
        <lane id=":J102_11_0" index="0" speed="7.80" length="4.09" shape="2189.13,-176.52 2190.42,-180.40"/>
    </edge>
    <edge id=":J102_13" function="internal">
        <lane id=":J102_13_0" index="0" speed="7.80" length="10.58" shape="2190.42,-180.40 2192.63,-182.78 2195.75,-183.66 2199.80,-183.03"/>
    </edge>
    <edge id=":J103_0" function="internal">
        <lane id=":J103_0_0" index="0" speed="13.89" length="14.52" shape="2276.29,-653.56 2273.84,-639.25"/>
    </edge>
    <edge id=":J103_1" function="internal">
        <lane id=":J103_1_0" index="0" speed="7.75" length="4.15" shape="2276.29,-653.56 2275.03,-649.60"/>
    </edge>
    <edge id=":J103_6" function="internal">
        <lane id=":J103_6_0" index="0" speed="7.75" length="10.66" shape="2275.03,-649.60 2272.83,-647.21 2269.68,-646.38 2265.59,-647.12"/>
    </edge>
    <edge id=":J103_2" function="internal">
        <lane id=":J103_2_0" index="0" speed="6.20" length="9.05" shape="2266.60,-650.15 2269.10,-649.70 2271.02,-650.21 2272.37,-651.67 2273.14,-654.09"/>
    </edge>
    <edge id=":J103_3" function="internal">
        <lane id=":J103_3_0" index="0" speed="8.54" length="14.48" shape="2266.60,-650.15 2270.30,-648.39 2272.74,-645.99 2273.92,-642.94 2273.84,-639.25"/>
    </edge>
    <edge id=":J103_4" function="internal">
        <lane id=":J103_4_0" index="0" speed="7.14" length="9.85" shape="2270.69,-639.81 2270.72,-642.25 2269.88,-644.28 2268.17,-645.91 2265.59,-647.12"/>
    </edge>
    <edge id=":J103_5" function="internal">
        <lane id=":J103_5_0" index="0" speed="13.89" length="14.49" shape="2270.69,-639.81 2273.14,-654.09"/>
    </edge>
    <edge id=":J104_0" function="internal">
        <lane id=":J104_0_0" index="0" speed="13.89" length="0.19" shape="2325.48,-947.91 2325.45,-947.73"/>
    </edge>
    <edge id=":J104_1" function="internal">
        <lane id=":J104_1_0" index="0" speed="13.89" length="0.30" shape="2322.29,-948.25 2322.35,-948.55"/>
    </edge>
    <edge id=":J105_0" function="internal">
        <lane id=":J105_0_0" index="0" speed="13.89" length="0.31" shape="2342.88,-1034.41 2342.82,-1034.10"/>
    </edge>
    <edge id=":J105_1" function="internal">
        <lane id=":J105_1_0" index="0" speed="13.89" length="0.26" shape="2339.68,-1034.73 2339.73,-1034.99"/>
    </edge>
    <edge id=":J107_0" function="internal">
        <lane id=":J107_0_0" index="0" speed="7.51" length="10.27" shape="2146.47,117.38 2143.47,117.83 2141.20,118.90 2139.65,120.57 2138.81,122.86"/>
    </edge>
    <edge id=":J107_1" function="internal">
        <lane id=":J107_1_0" index="0" speed="7.66" length="15.11" shape="2146.47,117.38 2142.21,116.95 2139.42,115.25 2138.10,112.25 2138.24,107.97"/>
    </edge>
    <edge id=":J107_2" function="internal">
        <lane id=":J107_2_0" index="0" speed="6.08" length="9.06" shape="2141.39,108.54 2141.31,111.11 2142.10,112.90 2143.77,113.93 2146.33,114.18"/>
    </edge>
    <edge id=":J107_3" function="internal">
        <lane id=":J107_3_0" index="0" speed="13.89" length="14.56" shape="2141.39,108.54 2138.81,122.86"/>
    </edge>
    <edge id=":J107_4" function="internal">
        <lane id=":J107_4_0" index="0" speed="13.89" length="14.55" shape="2135.67,122.29 2138.24,107.97"/>
    </edge>
    <edge id=":J107_5" function="internal">
        <lane id=":J107_5_0" index="0" speed="8.86" length="3.75" shape="2135.67,122.29 2136.86,118.90 2136.96,118.78"/>
    </edge>
    <edge id=":J107_6" function="internal">
        <lane id=":J107_6_0" index="0" speed="8.86" length="10.87" shape="2136.96,118.78 2139.03,116.41 2142.19,114.84 2146.33,114.18"/>
    </edge>
    <edge id=":J108_0" function="internal">
        <lane id=":J108_0_0" index="0" speed="6.73" length="9.33" shape="2461.79,-99.28 2459.36,-99.65 2457.33,-99.13 2455.70,-97.71 2454.47,-95.40"/>
    </edge>
    <edge id=":J108_1" function="internal">
        <lane id=":J108_1_0" index="0" speed="13.89" length="14.41" shape="2461.79,-99.28 2448.01,-103.53"/>
    </edge>
    <edge id=":J108_2" function="internal">
        <lane id=":J108_2_0" index="0" speed="13.89" length="14.42" shape="2448.95,-106.59 2462.74,-102.34"/>
    </edge>
    <edge id=":J108_3" function="internal">
        <lane id=":J108_3_0" index="0" speed="7.90" length="4.12" shape="2448.95,-106.59 2452.56,-104.89 2452.65,-104.78"/>
    </edge>
    <edge id=":J108_6" function="internal">
        <lane id=":J108_6_0" index="0" speed="7.90" length="10.29" shape="2452.65,-104.78 2454.68,-102.46 2455.32,-99.30 2454.47,-95.40"/>
    </edge>
    <edge id=":J108_4" function="internal">
        <lane id=":J108_4_0" index="0" speed="6.38" length="9.04" shape="2451.47,-96.52 2452.00,-98.96 2451.60,-100.94 2450.27,-102.46 2448.01,-103.53"/>
    </edge>
    <edge id=":J108_5" function="internal">
        <lane id=":J108_5_0" index="0" speed="8.19" length="14.28" shape="2451.47,-96.52 2453.34,-100.01 2455.84,-102.15 2458.97,-102.92 2462.74,-102.34"/>
    </edge>
    <edge id=":J109_0" function="internal">
        <lane id=":J109_0_0" index="0" speed="6.25" length="9.05" shape="24.01,156.08 21.52,155.67 19.59,156.19 18.22,157.64 17.41,160.03"/>
    </edge>
    <edge id=":J109_1" function="internal">
        <lane id=":J109_1_0" index="0" speed="13.89" length="14.94" shape="24.01,156.08 9.64,151.99"/>
    </edge>
    <edge id=":J109_2" function="internal">
        <lane id=":J109_2_0" index="0" speed="8.60" length="14.91" shape="24.01,156.08 20.35,154.34 17.95,151.85 16.83,148.62 16.97,144.65"/>
    </edge>
    <edge id=":J109_3" function="internal">
        <lane id=":J109_3_0" index="0" speed="7.22" length="10.23" shape="20.12,145.21 20.03,147.93 20.80,150.13 22.46,151.84 24.99,153.04"/>
    </edge>
    <edge id=":J109_4" function="internal">
        <lane id=":J109_4_0" index="0" speed="13.89" length="15.07" shape="20.12,145.21 17.41,160.03"/>
    </edge>
    <edge id=":J109_5" function="internal">
        <lane id=":J109_5_0" index="0" speed="7.89" length="4.14" shape="20.12,145.21 18.86,149.01 18.76,149.12"/>
    </edge>
    <edge id=":J109_12" function="internal">
        <lane id=":J109_12_0" index="0" speed="7.89" length="10.32" shape="18.76,149.12 16.69,151.40 13.62,152.40 9.64,151.99"/>
    </edge>
    <edge id=":J109_6" function="internal">
        <lane id=":J109_6_0" index="0" speed="6.36" length="9.04" shape="10.42,148.87 12.91,149.13 14.83,148.51 16.18,147.02 16.97,144.65"/>
    </edge>
    <edge id=":J109_7" function="internal">
        <lane id=":J109_7_0" index="0" speed="13.89" length="15.15" shape="10.42,148.87 24.99,153.04"/>
    </edge>
    <edge id=":J109_8" function="internal">
        <lane id=":J109_8_0" index="0" speed="8.36" length="14.82" shape="10.42,148.87 14.10,150.39 16.50,152.75 17.60,155.97 17.41,160.03"/>
    </edge>
    <edge id=":J109_9" function="internal">
        <lane id=":J109_9_0" index="0" speed="6.93" length="9.88" shape="14.27,159.45 14.40,156.73 13.67,154.57 12.08,152.99 9.64,151.99"/>
    </edge>
    <edge id=":J109_10" function="internal">
        <lane id=":J109_10_0" index="0" speed="13.89" length="15.05" shape="14.27,159.45 16.97,144.65"/>
    </edge>
    <edge id=":J109_11" function="internal">
        <lane id=":J109_11_0" index="0" speed="7.79" length="4.10" shape="14.27,159.45 15.58,155.57"/>
    </edge>
    <edge id=":J109_13" function="internal">
        <lane id=":J109_13_0" index="0" speed="7.79" length="10.59" shape="15.58,155.57 17.81,153.20 20.94,152.36 24.99,153.04"/>
    </edge>
    <edge id=":J11_0" function="internal">
        <lane id=":J11_0_0" index="0" speed="6.37" length="9.04" shape="-2388.31,2046.36 -2390.81,2046.18 -2392.71,2046.86 -2394.02,2048.40 -2394.74,2050.80"/>
    </edge>
    <edge id=":J11_1" function="internal">
        <lane id=":J11_1_0" index="0" speed="13.89" length="15.17" shape="-2388.31,2046.36 -2402.99,2042.52"/>
    </edge>
    <edge id=":J11_2" function="internal">
        <lane id=":J11_2_0" index="0" speed="8.28" length="14.77" shape="-2388.31,2046.36 -2392.04,2044.97 -2394.48,2042.68 -2395.64,2039.51 -2395.50,2035.43"/>
    </edge>
    <edge id=":J11_3" function="internal">
        <lane id=":J11_3_0" index="0" speed="6.84" length="9.77" shape="-2392.35,2035.98 -2392.44,2038.68 -2391.69,2040.80 -2390.09,2042.31 -2387.64,2043.23"/>
    </edge>
    <edge id=":J11_4" function="internal">
        <lane id=":J11_4_0" index="0" speed="13.89" length="15.01" shape="-2392.35,2035.98 -2394.74,2050.80"/>
    </edge>
    <edge id=":J11_5" function="internal">
        <lane id=":J11_5_0" index="0" speed="7.79" length="4.10" shape="-2392.35,2035.98 -2393.61,2039.88"/>
    </edge>
    <edge id=":J11_12" function="internal">
        <lane id=":J11_12_0" index="0" speed="7.79" length="10.60" shape="-2393.61,2039.88 -2395.81,2042.27 -2398.93,2043.15 -2402.99,2042.52"/>
    </edge>
    <edge id=":J11_6" function="internal">
        <lane id=":J11_6_0" index="0" speed="6.25" length="9.05" shape="-2402.05,2039.46 -2399.56,2039.85 -2397.63,2039.31 -2396.28,2037.84 -2395.50,2035.43"/>
    </edge>
    <edge id=":J11_7" function="internal">
        <lane id=":J11_7_0" index="0" speed="13.89" length="14.90" shape="-2402.05,2039.46 -2387.64,2043.23"/>
    </edge>
    <edge id=":J11_8" function="internal">
        <lane id=":J11_8_0" index="0" speed="8.67" length="14.93" shape="-2402.05,2039.46 -2398.36,2041.16 -2395.91,2043.62 -2394.71,2046.83 -2394.74,2050.80"/>
    </edge>
    <edge id=":J11_9" function="internal">
        <lane id=":J11_9_0" index="0" speed="7.30" length="10.30" shape="-2397.90,2050.32 -2397.88,2047.60 -2398.73,2045.39 -2400.43,2043.70 -2402.99,2042.52"/>
    </edge>
    <edge id=":J11_10" function="internal">
        <lane id=":J11_10_0" index="0" speed="13.89" length="15.08" shape="-2397.90,2050.32 -2395.50,2035.43"/>
    </edge>
    <edge id=":J11_11" function="internal">
        <lane id=":J11_11_0" index="0" speed="7.89" length="4.20" shape="-2397.90,2050.32 -2396.75,2046.50 -2396.62,2046.34"/>
    </edge>
    <edge id=":J11_13" function="internal">
        <lane id=":J11_13_0" index="0" speed="7.89" length="10.24" shape="-2396.62,2046.34 -2394.66,2044.04 -2391.62,2042.95 -2387.64,2043.23"/>
    </edge>
    <edge id=":J110_0" function="internal">
        <lane id=":J110_0_0" index="0" speed="6.23" length="9.05" shape="113.94,-342.33 111.44,-342.77 109.52,-342.26 108.15,-340.81 107.35,-338.41"/>
    </edge>
    <edge id=":J110_1" function="internal">
        <lane id=":J110_1_0" index="0" speed="13.89" length="15.30" shape="113.94,-342.33 99.37,-347.00"/>
    </edge>
    <edge id=":J110_2" function="internal">
        <lane id=":J110_2_0" index="0" speed="8.71" length="15.15" shape="113.94,-342.33 110.27,-344.13 107.87,-346.68 106.74,-349.99 106.89,-354.05"/>
    </edge>
    <edge id=":J110_3" function="internal">
        <lane id=":J110_3_0" index="0" speed="7.35" length="10.51" shape="110.04,-353.50 109.94,-350.68 110.72,-348.39 112.39,-346.62 114.93,-345.37"/>
    </edge>
    <edge id=":J110_4" function="internal">
        <lane id=":J110_4_0" index="0" speed="13.89" length="15.33" shape="110.04,-353.50 107.35,-338.41"/>
    </edge>
    <edge id=":J110_5" function="internal">
        <lane id=":J110_5_0" index="0" speed="7.79" length="4.11" shape="110.04,-353.50 108.76,-349.60"/>
    </edge>
    <edge id=":J110_12" function="internal">
        <lane id=":J110_12_0" index="0" speed="7.79" length="10.60" shape="108.76,-349.60 106.55,-347.21 103.42,-346.35 99.37,-347.00"/>
    </edge>
    <edge id=":J110_6" function="internal">
        <lane id=":J110_6_0" index="0" speed="6.25" length="9.05" shape="100.33,-350.06 102.82,-349.65 104.74,-350.19 106.10,-351.65 106.89,-354.05"/>
    </edge>
    <edge id=":J110_7" function="internal">
        <lane id=":J110_7_0" index="0" speed="13.89" length="15.34" shape="100.33,-350.06 114.93,-345.37"/>
    </edge>
    <edge id=":J110_8" function="internal">
        <lane id=":J110_8_0" index="0" speed="8.64" length="15.12" shape="100.33,-350.06 104.00,-348.32 106.40,-345.79 107.52,-342.49 107.35,-338.41"/>
    </edge>
    <edge id=":J110_9" function="internal">
        <lane id=":J110_9_0" index="0" speed="7.26" length="10.41" shape="104.20,-338.98 104.32,-341.79 103.55,-344.07 101.90,-345.80 99.37,-347.00"/>
    </edge>
    <edge id=":J110_10" function="internal">
        <lane id=":J110_10_0" index="0" speed="13.89" length="15.31" shape="104.20,-338.98 106.89,-354.05"/>
    </edge>
    <edge id=":J110_11" function="internal">
        <lane id=":J110_11_0" index="0" speed="7.77" length="4.12" shape="104.20,-338.98 105.51,-342.89"/>
    </edge>
    <edge id=":J110_13" function="internal">
        <lane id=":J110_13_0" index="0" speed="7.77" length="10.62" shape="105.51,-342.89 107.73,-345.26 110.87,-346.09 114.93,-345.37"/>
    </edge>
    <edge id=":J111_0" function="internal">
        <lane id=":J111_0_0" index="0" speed="6.53" length="8.23" shape="2264.54,117.07 2263.87,114.96 2262.69,113.48 2260.99,112.64 2258.78,112.43"/>
    </edge>
    <edge id=":J111_1" function="internal">
        <lane id=":J111_1_0" index="0" speed="8.92" length="12.58" shape="2264.54,117.07 2264.36,113.65 2265.05,110.69 2266.62,108.20 2269.06,106.18"/>
    </edge>
    <edge id=":J111_2" function="internal">
        <lane id=":J111_2_0" index="0" speed="7.49" length="8.72" shape="2270.75,108.90 2269.09,110.29 2268.04,112.02 2267.59,114.09 2267.75,116.50"/>
    </edge>
    <edge id=":J111_3" function="internal">
        <lane id=":J111_3_0" index="0" speed="13.89" length="12.65" shape="2270.75,108.90 2267.79,110.53 2265.04,111.57 2262.16,112.16 2258.78,112.43"/>
    </edge>
    <edge id=":J111_4" function="internal">
        <lane id=":J111_4_0" index="0" speed="13.89" length="11.05" shape="2258.64,109.23 2261.77,109.03 2264.13,108.61 2266.34,107.74 2269.06,106.18"/>
    </edge>
    <edge id=":J111_5" function="internal">
        <lane id=":J111_5_0" index="0" speed="8.06" length="3.49" shape="2258.64,109.23 2262.11,109.56"/>
    </edge>
    <edge id=":J111_6" function="internal">
        <lane id=":J111_6_0" index="0" speed="8.06" length="9.45" shape="2262.11,109.56 2264.79,110.88 2266.67,113.19 2267.75,116.50"/>
    </edge>
    <edge id=":J112_0" function="internal">
        <lane id=":J112_0_0" index="0" speed="9.62" length="10.44" shape="2415.82,24.64 2412.94,23.82 2410.30,23.60 2407.90,23.97 2405.74,24.93"/>
    </edge>
    <edge id=":J112_1" function="internal">
        <lane id=":J112_1_0" index="0" speed="8.00" length="14.20" shape="2415.82,24.64 2412.40,22.78 2410.40,20.28 2409.81,17.12 2410.64,13.32"/>
    </edge>
    <edge id=":J112_2" function="internal">
        <lane id=":J112_2_0" index="0" speed="6.51" length="9.03" shape="2413.64,14.44 2413.11,16.86 2413.49,18.86 2414.76,20.46 2416.94,21.64"/>
    </edge>
    <edge id=":J112_3" function="internal">
        <lane id=":J112_3_0" index="0" speed="13.79" length="13.40" shape="2413.64,14.44 2412.27,17.68 2410.63,20.45 2408.52,22.84 2405.74,24.93"/>
    </edge>
    <edge id=":J112_4" function="internal">
        <lane id=":J112_4_0" index="0" speed="12.73" length="11.37" shape="2404.05,22.21 2406.63,20.37 2408.29,18.54 2409.47,16.32 2410.64,13.32"/>
    </edge>
    <edge id=":J112_5" function="internal">
        <lane id=":J112_5_0" index="0" speed="10.83" length="3.11" shape="2404.05,22.21 2406.88,20.92"/>
    </edge>
    <edge id=":J112_6" function="internal">
        <lane id=":J112_6_0" index="0" speed="10.83" length="10.24" shape="2406.88,20.92 2409.97,20.39 2413.32,20.63 2416.94,21.64"/>
    </edge>
    <edge id=":J113_0" function="internal">
        <lane id=":J113_0_0" index="0" speed="6.51" length="8.83" shape="2503.74,178.69 2501.33,178.56 2499.44,179.23 2498.06,180.69 2497.21,182.95"/>
    </edge>
    <edge id=":J113_1" function="internal">
        <lane id=":J113_1_0" index="0" speed="8.02" length="13.88" shape="2503.74,178.69 2500.16,177.45 2497.80,175.36 2496.65,172.42 2496.71,168.64"/>
    </edge>
    <edge id=":J113_2" function="internal">
        <lane id=":J113_2_0" index="0" speed="6.52" length="8.84" shape="2499.87,169.15 2499.83,171.56 2500.56,173.43 2502.07,174.76 2504.35,175.55"/>
    </edge>
    <edge id=":J113_3" function="internal">
        <lane id=":J113_3_0" index="0" speed="13.89" length="14.05" shape="2499.87,169.15 2497.21,182.95"/>
    </edge>
    <edge id=":J113_4" function="internal">
        <lane id=":J113_4_0" index="0" speed="13.89" length="13.85" shape="2494.07,182.23 2496.71,168.64"/>
    </edge>
    <edge id=":J113_5" function="internal">
        <lane id=":J113_5_0" index="0" speed="8.01" length="3.79" shape="2494.07,182.23 2495.43,178.70"/>
    </edge>
    <edge id=":J113_6" function="internal">
        <lane id=":J113_6_0" index="0" speed="8.01" length="10.10" shape="2495.43,178.70 2497.59,176.40 2500.57,175.35 2504.35,175.55"/>
    </edge>
    <edge id=":J114_0" function="internal">
        <lane id=":J114_0_0" index="0" speed="6.20" length="9.05" shape="198.78,-823.70 196.28,-824.15 194.36,-823.66 193.00,-822.20 192.21,-819.80"/>
    </edge>
    <edge id=":J114_1" function="internal">
        <lane id=":J114_1_0" index="0" speed="13.89" length="15.37" shape="198.78,-823.70 184.18,-828.52"/>
    </edge>
    <edge id=":J114_2" function="internal">
        <lane id=":J114_2_0" index="0" speed="8.75" length="15.22" shape="198.78,-823.70 195.10,-825.52 192.71,-828.10 191.59,-831.43 191.74,-835.51"/>
    </edge>
    <edge id=":J114_3" function="internal">
        <lane id=":J114_3_0" index="0" speed="7.39" length="10.60" shape="194.89,-834.95 194.78,-832.11 195.57,-829.80 197.24,-828.00 199.80,-826.73"/>
    </edge>
    <edge id=":J114_4" function="internal">
        <lane id=":J114_4_0" index="0" speed="13.89" length="15.39" shape="194.89,-834.95 192.21,-819.80"/>
    </edge>
    <edge id=":J114_5" function="internal">
        <lane id=":J114_5_0" index="0" speed="7.78" length="4.12" shape="194.89,-834.95 193.60,-831.04"/>
    </edge>
    <edge id=":J114_12" function="internal">
        <lane id=":J114_12_0" index="0" speed="7.78" length="10.62" shape="193.60,-831.04 191.38,-828.66 188.24,-827.82 184.18,-828.52"/>
    </edge>
    <edge id=":J114_6" function="internal">
        <lane id=":J114_6_0" index="0" speed="6.23" length="9.05" shape="185.17,-831.57 187.66,-831.14 189.59,-831.65 190.95,-833.11 191.74,-835.51"/>
    </edge>
    <edge id=":J114_7" function="internal">
        <lane id=":J114_7_0" index="0" speed="13.89" length="15.41" shape="185.17,-831.57 199.80,-826.73"/>
    </edge>
    <edge id=":J114_8" function="internal">
        <lane id=":J114_8_0" index="0" speed="8.71" length="15.20" shape="185.17,-831.57 188.84,-829.78 191.24,-827.23 192.36,-823.90 192.21,-819.80"/>
    </edge>
    <edge id=":J114_9" function="internal">
        <lane id=":J114_9_0" index="0" speed="7.35" length="10.55" shape="189.05,-820.35 189.16,-823.20 188.38,-825.51 186.72,-827.29 184.18,-828.52"/>
    </edge>
    <edge id=":J114_10" function="internal">
        <lane id=":J114_10_0" index="0" speed="13.89" length="15.40" shape="189.05,-820.35 191.74,-835.51"/>
    </edge>
    <edge id=":J114_11" function="internal">
        <lane id=":J114_11_0" index="0" speed="7.76" length="4.15" shape="189.05,-820.35 190.35,-824.29"/>
    </edge>
    <edge id=":J114_13" function="internal">
        <lane id=":J114_13_0" index="0" speed="7.76" length="10.65" shape="190.35,-824.29 192.57,-826.67 195.72,-827.48 199.80,-826.73"/>
    </edge>
    <edge id=":J115_0" function="internal">
        <lane id=":J115_0_0" index="0" speed="7.46" length="8.95" shape="2620.89,206.10 2620.23,203.98 2619.00,202.31 2617.20,201.10 2614.82,200.36"/>
    </edge>
    <edge id=":J115_1" function="internal">
        <lane id=":J115_1_0" index="0" speed="13.89" length="12.96" shape="2620.89,206.10 2620.52,202.69 2620.56,199.65 2621.02,196.63 2621.88,193.30"/>
    </edge>
    <edge id=":J115_2" function="internal">
        <lane id=":J115_2_0" index="0" speed="13.89" length="11.56" shape="2624.95,194.21 2624.10,197.32 2623.68,199.85 2623.67,202.41 2624.06,205.59"/>
    </edge>
    <edge id=":J115_3" function="internal">
        <lane id=":J115_3_0" index="0" speed="8.02" length="3.59" shape="2624.95,194.21 2623.47,197.47"/>
    </edge>
    <edge id=":J115_6" function="internal">
        <lane id=":J115_6_0" index="0" speed="8.02" length="9.66" shape="2623.47,197.47 2621.28,199.59 2618.40,200.55 2614.82,200.36"/>
    </edge>
    <edge id=":J115_4" function="internal">
        <lane id=":J115_4_0" index="0" speed="6.52" length="8.43" shape="2615.44,197.22 2617.71,197.34 2619.55,196.73 2620.94,195.38 2621.88,193.30"/>
    </edge>
    <edge id=":J115_5" function="internal">
        <lane id=":J115_5_0" index="0" speed="8.85" length="12.89" shape="2615.44,197.22 2618.80,198.29 2621.36,200.04 2623.11,202.48 2624.06,205.59"/>
    </edge>
    <edge id=":J117_0" function="internal">
        <lane id=":J117_0_0" index="0" speed="6.47" length="9.03" shape="2695.99,-26.73 2693.54,-27.13 2691.57,-26.65 2690.06,-25.28 2689.03,-23.02"/>
    </edge>
    <edge id=":J117_1" function="internal">
        <lane id=":J117_1_0" index="0" speed="13.89" length="14.41" shape="2695.99,-26.73 2682.24,-31.03"/>
    </edge>
    <edge id=":J117_2" function="internal">
        <lane id=":J117_2_0" index="0" speed="13.89" length="14.43" shape="2683.19,-34.09 2696.96,-29.78"/>
    </edge>
    <edge id=":J117_3" function="internal">
        <lane id=":J117_3_0" index="0" speed="8.05" length="4.06" shape="2683.19,-34.09 2686.68,-32.43 2686.81,-32.28"/>
    </edge>
    <edge id=":J117_6" function="internal">
        <lane id=":J117_6_0" index="0" speed="8.05" length="10.16" shape="2686.81,-32.28 2688.82,-30.03 2689.60,-26.89 2689.03,-23.02"/>
    </edge>
    <edge id=":J117_4" function="internal">
        <lane id=":J117_4_0" index="0" speed="6.56" length="9.11" shape="2685.96,-23.93 2686.33,-26.42 2685.83,-28.43 2684.47,-29.97 2682.24,-31.03"/>
    </edge>
    <edge id=":J117_5" function="internal">
        <lane id=":J117_5_0" index="0" speed="7.97" length="14.26" shape="2685.96,-23.93 2687.59,-27.49 2689.97,-29.66 2693.09,-30.42 2696.96,-29.78"/>
    </edge>
    <edge id=":J118_0" function="internal">
        <lane id=":J118_0_0" index="0" speed="6.24" length="9.05" shape="-661.16,36.47 -663.65,36.08 -665.57,36.62 -666.92,38.09 -667.70,40.49"/>
    </edge>
    <edge id=":J118_1" function="internal">
        <lane id=":J118_1_0" index="0" speed="8.01" length="14.59" shape="-661.16,36.47 -664.86,34.74 -667.09,32.30 -667.84,29.14 -667.12,25.26"/>
    </edge>
    <edge id=":J118_2" function="internal">
        <lane id=":J118_2_0" index="0" speed="6.50" length="9.28" shape="-664.07,26.31 -664.52,28.76 -664.04,30.75 -662.60,32.30 -660.22,33.41"/>
    </edge>
    <edge id=":J118_3" function="internal">