<?xml version="1.0" encoding="UTF-8"?>

<!-- generated on 2025-08-26 22:22:10 by Eclipse SUMO netedit Version 1.19.0
<configuration xmlns:xsi="http://www.w3.org/2001/XMLSchema-instance" xsi:noNamespaceSchemaLocation="http://sumo.dlr.de/xsd/neteditConfiguration.xsd">

    <input>
        <sumo-net-file value="C:\Users\647va\.vscode\traffic_optimization\traffic_optimization-3\NETWORKS\Hwy7_404_network\Hwy7_404.net.xml"/>
    </input>

    <output>
        <output-file value="C:\Users\647va\.vscode\traffic_optimization\traffic_optimization-3\NETWORKS\Hwy7_404_network\Hwy7_404.net.xml"/>
    </output>

    <processing>
        <geometry.min-radius.fix.railways value="false"/>
        <geometry.max-grade.fix value="false"/>
        <offset.disable-normalization value="true"/>
        <lefthand value="0"/>
    </processing>

    <junctions>
        <no-turnarounds value="true"/>
        <junctions.corner-detail value="5"/>
        <junctions.limit-turn-speed value="5.50"/>
        <rectangular-lane-cut value="0"/>
    </junctions>

    <pedestrian>
        <walkingareas value="0"/>
    </pedestrian>

</configuration>
-->

<net version="1.16" junctionCornerDetail="5" limitTurnSpeed="5.50" xmlns:xsi="http://www.w3.org/2001/XMLSchema-instance" xsi:noNamespaceSchemaLocation="http://sumo.dlr.de/xsd/net_file.xsd">

    <location netOffset="0.00,0.00" convBoundary="-3904.76,-2662.79,3879.47,2376.71" origBoundary="-10000000000.00,-10000000000.00,10000000000.00,10000000000.00" projParameter="!"/>

    <edge id=":J1_0" function="internal">
        <lane id=":J1_0_0" index="0" speed="13.89" length="14.40" shape="-3020.04,481.80 -3033.78,477.48"/>
    </edge>
    <edge id=":J1_1" function="internal">
        <lane id=":J1_1_0" index="0" speed="8.06" length="4.04" shape="-3020.04,481.80 -3023.53,480.13 -3023.64,480.00"/>
    </edge>
    <edge id=":J1_6" function="internal">
        <lane id=":J1_6_0" index="0" speed="8.06" length="10.18" shape="-3023.64,480.00 -3025.65,477.72 -3026.43,474.59 -3025.85,470.72"/>
    </edge>
    <edge id=":J1_2" function="internal">
        <lane id=":J1_2_0" index="0" speed="6.57" length="9.12" shape="-3022.78,471.63 -3023.16,474.12 -3022.67,476.13 -3021.31,477.68 -3019.08,478.75"/>
    </edge>
    <edge id=":J1_3" function="internal">
        <lane id=":J1_3_0" index="0" speed="7.97" length="14.26" shape="-3022.78,471.63 -3024.42,475.19 -3026.80,477.35 -3029.92,478.11 -3033.78,477.48"/>
    </edge>
    <edge id=":J1_4" function="internal">
        <lane id=":J1_4_0" index="0" speed="6.47" length="9.03" shape="-3032.82,474.43 -3030.37,474.83 -3028.39,474.35 -3026.89,472.98 -3025.85,470.72"/>
    </edge>
    <edge id=":J1_5" function="internal">
        <lane id=":J1_5_0" index="0" speed="13.89" length="14.40" shape="-3032.82,474.43 -3019.08,478.75"/>
    </edge>
    <edge id=":J101_0" function="internal">
        <lane id=":J101_0_0" index="0" speed="7.34" length="9.87" shape="-829.23,-1459.78 -831.65,-1459.81 -833.72,-1459.00 -835.44,-1457.35 -836.80,-1454.86"/>
    </edge>
    <edge id=":J101_1" function="internal">
        <lane id=":J101_1_0" index="0" speed="13.89" length="14.31" shape="-829.23,-1459.78 -832.81,-1460.45 -836.24,-1461.20 -839.65,-1462.04 -843.17,-1462.98"/>
    </edge>
    <edge id=":J101_2" function="internal">
        <lane id=":J101_2_0" index="0" speed="13.89" length="13.98" shape="-842.30,-1466.09 -838.84,-1465.15 -835.54,-1464.33 -832.21,-1463.62 -828.68,-1462.96"/>
    </edge>
    <edge id=":J101_3" function="internal">
        <lane id=":J101_3_0" index="0" speed="7.82" length="4.08" shape="-842.30,-1466.09 -838.57,-1464.43"/>
    </edge>
    <edge id=":J101_6" function="internal">
        <lane id=":J101_6_0" index="0" speed="7.82" length="10.57" shape="-838.57,-1464.43 -836.41,-1462.01 -835.82,-1458.82 -836.80,-1454.86"/>
    </edge>
    <edge id=":J101_4" function="internal">
        <lane id=":J101_4_0" index="0" speed="6.27" length="9.04" shape="-839.76,-1456.06 -839.16,-1458.51 -839.53,-1460.48 -840.86,-1461.97 -843.17,-1462.98"/>
    </edge>
    <edge id=":J101_5" function="internal">
        <lane id=":J101_5_0" index="0" speed="8.73" length="14.27" shape="-839.76,-1456.06 -837.82,-1459.58 -835.33,-1461.90 -832.28,-1463.03 -828.68,-1462.96"/>
    </edge>
    <edge id=":J102_0" function="internal">
        <lane id=":J102_0_0" index="0" speed="7.05" length="11.78" shape="2203.43,-168.52 2199.54,-169.34 2196.62,-169.11 2194.66,-167.82 2193.66,-165.49"/>
    </edge>
    <edge id=":J102_1" function="internal">
        <lane id=":J102_1_0" index="0" speed="13.89" length="34.15" shape="2203.43,-168.52 2170.85,-178.80"/>
        <lane id=":J102_1_1" index="1" speed="13.89" length="34.15" shape="2204.37,-171.58 2171.84,-181.85"/>
        <lane id=":J102_1_2" index="2" speed="13.89" length="34.15" shape="2205.31,-174.64 2172.82,-184.89"/>
        <lane id=":J102_1_3" index="3" speed="13.89" length="34.15" shape="2205.31,-174.64 2195.78,-178.10 2189.53,-181.20 2183.29,-184.35 2173.80,-187.94"/>
    </edge>
    <edge id=":J102_5" function="internal">
        <lane id=":J102_5_0" index="0" speed="12.98" length="35.43" shape="2205.31,-174.64 2197.36,-178.57 2192.27,-184.59 2190.01,-192.72 2190.61,-202.94"/>
        <lane id=":J102_5_1" index="1" speed="12.11" length="30.71" shape="2206.25,-177.70 2199.46,-181.09 2195.11,-186.33 2193.21,-193.43 2193.76,-202.38"/>
    </edge>
    <edge id=":J102_7" function="internal">
        <lane id=":J102_7_0" index="0" speed="7.71" length="11.89" shape="2206.36,-200.13 2206.01,-196.27 2206.50,-193.28 2207.83,-191.17 2210.00,-189.94"/>
        <lane id=":J102_7_1" index="1" speed="9.01" length="16.58" shape="2203.21,-200.69 2202.81,-195.56 2203.65,-191.54 2205.74,-188.65 2209.06,-186.88"/>
    </edge>
    <edge id=":J102_9" function="internal">
        <lane id=":J102_9_0" index="0" speed="13.89" length="36.50" shape="2203.21,-200.69 2200.61,-189.00 2197.89,-180.05 2195.45,-172.62 2193.66,-165.49"/>
        <lane id=":J102_9_1" index="1" speed="13.89" length="36.50" shape="2200.06,-201.25 2197.46,-189.57 2194.74,-180.61 2192.30,-173.18 2190.51,-166.05"/>
    </edge>
    <edge id=":J102_11" function="internal">
        <lane id=":J102_11_0" index="0" speed="11.33" length="9.43" shape="2196.91,-201.82 2194.19,-192.78"/>
    </edge>
    <edge id=":J102_25" function="internal">
        <lane id=":J102_25_0" index="0" speed="11.33" length="23.10" shape="2194.19,-192.78 2189.71,-187.62 2183.05,-186.09 2173.80,-187.94"/>
    </edge>
    <edge id=":J102_12" function="internal">
        <lane id=":J102_12_0" index="0" speed="6.23" length="9.05" shape="2177.73,-200.12 2180.22,-199.69 2182.15,-200.21 2183.51,-201.67 2184.31,-204.07"/>
    </edge>
    <edge id=":J102_13" function="internal">
        <lane id=":J102_13_0" index="0" speed="13.89" length="33.91" shape="2177.73,-200.12 2210.00,-189.94"/>
        <lane id=":J102_13_1" index="1" speed="13.89" length="33.91" shape="2176.75,-197.07 2209.06,-186.88"/>
        <lane id=":J102_13_2" index="2" speed="13.89" length="33.91" shape="2175.77,-194.03 2208.12,-183.82"/>
        <lane id=":J102_13_3" index="3" speed="13.89" length="33.91" shape="2174.78,-190.98 2207.18,-180.76"/>
    </edge>
    <edge id=":J102_17" function="internal">
        <lane id=":J102_17_0" index="0" speed="12.55" length="32.70" shape="2174.78,-190.98 2182.92,-187.11 2188.26,-181.67 2190.79,-174.65 2190.51,-166.05"/>
    </edge>
    <edge id=":J102_18" function="internal">
        <lane id=":J102_18_0" index="0" speed="8.37" length="14.02" shape="2177.91,-168.31 2177.99,-171.88 2176.84,-174.81 2174.46,-177.12 2170.85,-178.80"/>
    </edge>
    <edge id=":J102_19" function="internal">
        <lane id=":J102_19_0" index="0" speed="13.89" length="36.38" shape="2177.91,-168.31 2184.31,-204.07"/>
        <lane id=":J102_19_1" index="1" speed="13.89" length="36.38" shape="2181.06,-167.75 2187.46,-203.51"/>
        <lane id=":J102_19_2" index="2" speed="13.89" length="36.38" shape="2184.21,-167.18 2190.61,-202.94"/>
        <lane id=":J102_19_3" index="3" speed="13.89" length="36.38" shape="2184.21,-167.18 2186.61,-177.73 2188.99,-184.78 2191.36,-191.83 2193.76,-202.38"/>
    </edge>
    <edge id=":J102_23" function="internal">
        <lane id=":J102_23_0" index="0" speed="11.80" length="19.21" shape="2184.21,-167.18 2186.98,-177.17 2191.44,-183.25 2192.67,-183.66"/>
        <lane id=":J102_23_1" index="1" speed="10.69" length="8.99" shape="2187.36,-166.62 2189.89,-174.69 2190.23,-175.10"/>
    </edge>
    <edge id=":J102_26" function="internal">
        <lane id=":J102_26_0" index="0" speed="11.80" length="15.87" shape="2192.67,-183.66 2198.26,-185.46 2208.12,-183.82"/>
    </edge>
    <edge id=":J102_27" function="internal">
        <lane id=":J102_27_0" index="0" speed="10.69" length="19.56" shape="2190.23,-175.10 2194.03,-179.74 2199.80,-181.76 2207.18,-180.76"/>
    </edge>
    <edge id=":J103_0" function="internal">
        <lane id=":J103_0_0" index="0" speed="6.25" length="9.04" shape="2290.24,-636.79 2287.74,-637.19 2285.82,-636.65 2284.46,-635.19 2283.67,-632.79"/>
    </edge>
    <edge id=":J103_1" function="internal">
        <lane id=":J103_1_0" index="0" speed="13.89" length="33.77" shape="2290.24,-636.79 2258.03,-647.05"/>
        <lane id=":J103_1_1" index="1" speed="13.89" length="33.77" shape="2291.18,-639.85 2259.03,-650.09"/>
    </edge>
    <edge id=":J103_3" function="internal">
        <lane id=":J103_3_0" index="0" speed="12.00" length="29.80" shape="2291.18,-639.85 2281.99,-643.55 2275.73,-648.01 2272.41,-653.24 2272.02,-659.25"/>
        <lane id=":J103_3_1" index="1" speed="11.49" length="27.27" shape="2291.18,-639.85 2283.34,-643.15 2278.06,-647.40 2275.34,-652.59 2275.18,-658.71"/>
    </edge>
    <edge id=":J103_5" function="internal">
        <lane id=":J103_5_0" index="0" speed="7.40" length="10.78" shape="2287.80,-656.58 2287.85,-654.11 2288.91,-652.03 2290.96,-650.35 2294.02,-649.05"/>
    </edge>
    <edge id=":J103_6" function="internal">
        <lane id=":J103_6_0" index="0" speed="13.89" length="24.10" shape="2287.80,-656.58 2283.67,-632.79"/>
        <lane id=":J103_6_1" index="1" speed="13.89" length="24.10" shape="2284.65,-657.11 2280.52,-633.36"/>
        <lane id=":J103_6_2" index="2" speed="13.89" length="24.10" shape="2281.49,-657.65 2277.36,-633.92"/>
        <lane id=":J103_6_3" index="3" speed="13.89" length="24.10" shape="2278.34,-658.18 2274.21,-634.48"/>
    </edge>
    <edge id=":J103_10" function="internal">
        <lane id=":J103_10_0" index="0" speed="9.86" length="5.81" shape="2278.34,-658.18 2276.33,-652.73"/>
    </edge>
    <edge id=":J103_20" function="internal">
        <lane id=":J103_20_0" index="0" speed="9.86" length="18.80" shape="2276.33,-652.73 2276.26,-652.56 2272.35,-649.33 2266.61,-648.51 2259.03,-650.09"/>
    </edge>
    <edge id=":J103_11" function="internal">
        <lane id=":J103_11_0" index="0" speed="13.89" length="33.95" shape="2260.02,-653.13 2265.32,-652.46 2273.43,-652.17 2283.33,-651.34 2294.02,-649.05"/>
        <lane id=":J103_11_1" index="1" speed="13.89" length="33.95" shape="2260.02,-653.13 2265.18,-651.98 2272.96,-650.64 2282.54,-648.76 2293.08,-645.99"/>
        <lane id=":J103_11_2" index="2" speed="13.89" length="33.95" shape="2260.02,-653.13 2292.13,-642.94"/>
    </edge>
    <edge id=":J103_14" function="internal">
        <lane id=":J103_14_0" index="0" speed="11.23" length="25.89" shape="2260.02,-653.13 2267.12,-649.94 2271.85,-645.76 2274.21,-640.61 2274.21,-634.48"/>
    </edge>
    <edge id=":J103_15" function="internal">
        <lane id=":J103_15_0" index="0" speed="7.79" length="11.96" shape="2261.61,-636.73 2261.97,-640.62 2261.49,-643.63 2260.18,-645.78 2258.03,-647.05"/>
    </edge>
    <edge id=":J103_16" function="internal">
        <lane id=":J103_16_0" index="0" speed="13.89" length="24.26" shape="2261.61,-636.73 2263.36,-643.68 2265.28,-648.25 2267.19,-652.83 2268.87,-659.78"/>
        <lane id=":J103_16_1" index="1" speed="13.89" length="24.26" shape="2264.76,-636.17 2266.51,-643.12 2268.44,-647.70 2270.34,-652.28 2272.02,-659.25"/>
        <lane id=":J103_16_2" index="2" speed="13.89" length="24.26" shape="2267.91,-635.61 2269.66,-642.57 2271.59,-647.15 2273.49,-651.74 2275.18,-658.71"/>
    </edge>
    <edge id=":J103_19" function="internal">
        <lane id=":J103_19_0" index="0" speed="10.24" length="3.51" shape="2271.06,-635.04 2272.36,-638.31"/>
    </edge>
    <edge id=":J103_21" function="internal">
        <lane id=":J103_21_0" index="0" speed="10.24" length="22.64" shape="2272.36,-638.31 2273.30,-640.66 2277.55,-643.84 2283.83,-644.60 2292.13,-642.94"/>
    </edge>
    <edge id=":J104_0" function="internal">
        <lane id=":J104_0_0" index="0" speed="13.89" length="16.96" shape="2337.89,-970.34 2337.48,-965.35 2337.91,-961.88 2338.36,-958.41 2337.99,-953.41"/>
        <lane id=":J104_0_1" index="1" speed="13.89" length="16.96" shape="2334.74,-970.90 2334.33,-965.91 2334.76,-962.43 2335.21,-958.95 2334.83,-953.95"/>
        <lane id=":J104_0_2" index="2" speed="13.89" length="16.96" shape="2331.59,-971.46 2331.18,-966.46 2331.61,-962.98 2332.05,-959.49 2331.68,-954.48"/>
        <lane id=":J104_0_3" index="3" speed="13.89" length="16.96" shape="2331.59,-971.46 2328.52,-955.02"/>
    </edge>
    <edge id=":J104_4" function="internal">
        <lane id=":J104_4_0" index="0" speed="6.84" length="2.06" shape="2331.59,-971.46 2330.49,-969.72"/>
    </edge>
    <edge id=":J104_9" function="internal">
        <lane id=":J104_9_0" index="0" speed="6.84" length="17.41" shape="2330.49,-969.72 2329.02,-967.39 2324.59,-966.52 2320.16,-968.55 2317.59,-973.16"/>
    </edge>
    <edge id=":J104_5" function="internal">
        <lane id=":J104_5_0" index="0" speed="13.89" length="16.75" shape="2319.06,-956.62 2319.53,-961.96 2319.17,-966.11 2318.38,-969.65 2317.59,-973.16"/>
    </edge>
    <edge id=":J104_6" function="internal">
        <lane id=":J104_6_0" index="0" speed="13.89" length="16.79" shape="2319.06,-956.62 2322.14,-973.15"/>
        <lane id=":J104_6_1" index="1" speed="13.89" length="16.79" shape="2322.21,-956.08 2325.29,-972.59"/>
        <lane id=":J104_6_2" index="2" speed="13.89" length="16.79" shape="2325.37,-955.55 2328.44,-972.03"/>
    </edge>
    <edge id=":J105_0" function="internal">
        <lane id=":J105_0_0" index="0" speed="8.16" length="13.48" shape="2353.44,-1029.16 2348.40,-1029.20 2344.70,-1028.64 2342.33,-1027.46 2341.29,-1025.69"/>
    </edge>
    <edge id=":J105_1" function="internal">
        <lane id=":J105_1_0" index="0" speed="10.10" length="25.39" shape="2353.44,-1029.16 2345.00,-1030.06 2338.61,-1031.95 2334.82,-1035.25 2334.20,-1040.43"/>
        <lane id=":J105_1_1" index="1" speed="8.94" length="19.66" shape="2353.63,-1032.36 2346.06,-1033.22 2340.82,-1034.75 2337.92,-1036.96 2337.35,-1039.85"/>
        <lane id=":J105_1_2" index="2" speed="8.24" length="16.51" shape="2353.63,-1032.36 2347.47,-1033.11 2343.22,-1034.51 2340.90,-1036.56 2340.50,-1039.26"/>
    </edge>
    <edge id=":J105_4" function="internal">
        <lane id=":J105_4_0" index="0" speed="13.89" length="13.20" shape="2346.79,-1038.10 2344.44,-1025.12"/>
        <lane id=":J105_4_1" index="1" speed="13.89" length="13.20" shape="2343.64,-1038.68 2341.29,-1025.69"/>
    </edge>
    <edge id=":J105_6" function="internal">
        <lane id=":J105_6_0" index="0" speed="13.89" length="13.23" shape="2334.99,-1026.81 2337.35,-1039.85"/>
        <lane id=":J105_6_1" index="1" speed="13.89" length="13.23" shape="2338.14,-1026.25 2340.50,-1039.26"/>
    </edge>
    <edge id=":J106_0" function="internal">
        <lane id=":J106_0_0" index="0" speed="13.89" length="8.04" shape="2363.79,-1130.46 2362.37,-1122.53"/>
        <lane id=":J106_0_1" index="1" speed="13.89" length="8.04" shape="2360.64,-1131.00 2359.23,-1123.11"/>
    </edge>
    <edge id=":J106_2" function="internal">
        <lane id=":J106_2_0" index="0" speed="13.89" length="7.97" shape="2352.93,-1124.27 2354.33,-1132.10"/>
        <lane id=":J106_2_1" index="1" speed="13.89" length="7.97" shape="2356.08,-1123.69 2357.49,-1131.55"/>
    </edge>
    <edge id=":J107_0" function="internal">
        <lane id=":J107_0_0" index="0" speed="7.10" length="9.01" shape="2154.86,117.01 2152.50,117.43 2150.67,118.48 2149.38,120.14 2148.62,122.42"/>
        <lane id=":J107_0_1" index="1" speed="7.88" length="11.33" shape="2154.86,117.01 2151.07,117.45 2148.24,118.40 2146.38,119.86 2145.48,121.82"/>
        <lane id=":J107_0_2" index="2" speed="8.66" length="13.86" shape="2154.86,117.01 2149.64,117.47 2145.81,118.32 2143.38,119.58 2142.33,121.23"/>
    </edge>
    <edge id=":J107_3" function="internal">
        <lane id=":J107_3_0" index="0" speed="9.89" length="25.98" shape="2154.86,117.01 2146.36,116.94 2139.80,115.58 2135.85,112.35 2135.22,106.70"/>
        <lane id=":J107_3_1" index="1" speed="9.22" length="22.41" shape="2154.86,117.01 2146.94,116.70 2141.55,114.98 2138.69,111.83 2138.37,107.27"/>
    </edge>
    <edge id=":J107_5" function="internal">
        <lane id=":J107_5_0" index="0" speed="7.21" length="13.25" shape="2144.67,108.39 2144.90,110.95 2146.65,112.70 2149.93,113.65 2154.72,113.81"/>
    </edge>
    <edge id=":J107_6" function="internal">
        <lane id=":J107_6_0" index="0" speed="13.89" length="13.03" shape="2144.67,108.39 2142.33,121.23"/>
        <lane id=":J107_6_1" index="1" speed="13.89" length="13.03" shape="2141.52,107.83 2139.19,120.64"/>
    </edge>
    <edge id=":J107_8" function="internal">
        <lane id=":J107_8_0" index="0" speed="13.89" length="13.08" shape="2129.75,118.86 2129.98,114.95 2129.36,112.22 2128.73,109.50 2128.92,105.58"/>
        <lane id=":J107_8_1" index="1" speed="13.89" length="13.08" shape="2129.75,118.86 2132.07,106.14"/>
        <lane id=":J107_8_2" index="2" speed="13.89" length="13.08" shape="2132.90,119.46 2135.22,106.70"/>
        <lane id=":J107_8_3" index="3" speed="13.89" length="13.08" shape="2136.04,120.05 2138.37,107.27"/>
    </edge>
    <edge id=":J107_12" function="internal">
        <lane id=":J107_12_0" index="0" speed="10.47" length="2.03" shape="2136.04,120.05 2137.13,118.34"/>
    </edge>
    <edge id=":J107_13" function="internal">
        <lane id=":J107_13_0" index="0" speed="10.47" length="18.60" shape="2137.13,118.34 2137.60,117.61 2141.23,115.76 2146.94,114.49 2154.72,113.81"/>
    </edge>
    <edge id=":J108_0" function="internal">
        <lane id=":J108_0_0" index="0" speed="6.96" length="11.19" shape="2461.05,-92.96 2458.53,-93.15 2456.51,-92.11 2454.96,-89.85 2453.91,-86.36"/>
    </edge>
    <edge id=":J108_1" function="internal">
        <lane id=":J108_1_0" index="0" speed="13.89" length="14.03" shape="2461.05,-92.96 2447.55,-96.98"/>
        <lane id=":J108_1_1" index="1" speed="13.89" length="14.03" shape="2461.94,-96.04 2448.49,-100.04"/>
        <lane id=":J108_1_2" index="2" speed="13.89" length="14.03" shape="2462.83,-99.11 2449.43,-103.09"/>
    </edge>
    <edge id=":J108_4" function="internal">
        <lane id=":J108_4_0" index="0" speed="13.89" length="13.86" shape="2453.18,-115.33 2466.40,-111.40"/>
        <lane id=":J108_4_1" index="1" speed="13.89" length="13.86" shape="2452.24,-112.27 2465.51,-108.33"/>
        <lane id=":J108_4_2" index="2" speed="13.89" length="13.86" shape="2451.31,-109.21 2464.62,-105.26"/>
        <lane id=":J108_4_3" index="3" speed="13.89" length="13.86" shape="2450.37,-106.15 2463.73,-102.18"/>
    </edge>
    <edge id=":J108_8" function="internal">
        <lane id=":J108_8_0" index="0" speed="10.15" length="2.30" shape="2450.37,-106.15 2452.23,-104.82"/>
    </edge>
    <edge id=":J108_14" function="internal">
        <lane id=":J108_14_0" index="0" speed="10.15" length="19.34" shape="2452.23,-104.82 2453.23,-104.11 2454.77,-100.13 2455.00,-94.21 2453.91,-86.36"/>
    </edge>
    <edge id=":J108_9" function="internal">
        <lane id=":J108_9_0" index="0" speed="6.75" length="9.02" shape="2450.76,-86.98 2450.90,-89.42 2450.25,-91.38 2448.82,-92.88 2446.61,-93.92"/>
        <lane id=":J108_9_1" index="1" speed="7.55" length="11.55" shape="2450.76,-86.98 2451.19,-90.79 2450.80,-93.73 2449.59,-95.79 2447.55,-96.98"/>
        <lane id=":J108_9_2" index="2" speed="8.32" length="14.24" shape="2450.76,-86.98 2451.48,-92.16 2451.35,-96.07 2450.35,-98.69 2448.49,-100.04"/>
    </edge>
    <edge id=":J108_12" function="internal">
        <lane id=":J108_12_0" index="0" speed="10.26" length="25.58" shape="2450.76,-86.98 2453.20,-96.03 2456.32,-102.09 2460.13,-105.17 2464.62,-105.26"/>
        <lane id=":J108_12_1" index="1" speed="9.66" length="22.55" shape="2450.76,-86.98 2452.90,-94.65 2455.78,-99.75 2459.39,-102.26 2463.73,-102.18"/>
    </edge>
    <edge id=":J109_0" function="internal">
        <lane id=":J109_0_0" index="0" speed="6.25" length="9.05" shape="24.01,156.08 21.52,155.67 19.59,156.19 18.22,157.64 17.41,160.03"/>
    </edge>
    <edge id=":J109_1" function="internal">
        <lane id=":J109_1_0" index="0" speed="13.89" length="14.94" shape="24.01,156.08 9.64,151.99"/>
    </edge>
    <edge id=":J109_2" function="internal">
        <lane id=":J109_2_0" index="0" speed="8.60" length="14.91" shape="24.01,156.08 20.35,154.34 17.95,151.85 16.83,148.62 16.97,144.65"/>
    </edge>
    <edge id=":J109_3" function="internal">
        <lane id=":J109_3_0" index="0" speed="7.22" length="10.23" shape="20.12,145.21 20.03,147.93 20.80,150.13 22.46,151.84 24.99,153.04"/>
    </edge>
    <edge id=":J109_4" function="internal">
        <lane id=":J109_4_0" index="0" speed="13.89" length="15.07" shape="20.12,145.21 17.41,160.03"/>
    </edge>
    <edge id=":J109_5" function="internal">
        <lane id=":J109_5_0" index="0" speed="7.89" length="4.14" shape="20.12,145.21 18.86,149.01 18.76,149.12"/>
    </edge>
    <edge id=":J109_12" function="internal">
        <lane id=":J109_12_0" index="0" speed="7.89" length="10.32" shape="18.76,149.12 16.69,151.40 13.62,152.40 9.64,151.99"/>
    </edge>
    <edge id=":J109_6" function="internal">
        <lane id=":J109_6_0" index="0" speed="6.36" length="9.04" shape="10.42,148.87 12.91,149.13 14.83,148.51 16.18,147.02 16.97,144.65"/>
    </edge>
    <edge id=":J109_7" function="internal">
        <lane id=":J109_7_0" index="0" speed="13.89" length="15.15" shape="10.42,148.87 24.99,153.04"/>
    </edge>
    <edge id=":J109_8" function="internal">
        <lane id=":J109_8_0" index="0" speed="8.36" length="14.82" shape="10.42,148.87 14.10,150.39 16.50,152.75 17.60,155.97 17.41,160.03"/>
    </edge>
    <edge id=":J109_9" function="internal">
        <lane id=":J109_9_0" index="0" speed="6.93" length="9.88" shape="14.27,159.45 14.40,156.73 13.67,154.57 12.08,152.99 9.64,151.99"/>
    </edge>
    <edge id=":J109_10" function="internal">
        <lane id=":J109_10_0" index="0" speed="13.89" length="15.05" shape="14.27,159.45 16.97,144.65"/>
    </edge>
    <edge id=":J109_11" function="internal">
        <lane id=":J109_11_0" index="0" speed="7.79" length="4.10" shape="14.27,159.45 15.58,155.57"/>
    </edge>
    <edge id=":J109_13" function="internal">
        <lane id=":J109_13_0" index="0" speed="7.79" length="10.59" shape="15.58,155.57 17.81,153.20 20.94,152.36 24.99,153.04"/>
    </edge>
    <edge id=":J11_0" function="internal">
        <lane id=":J11_0_0" index="0" speed="6.35" length="9.04" shape="-2387.87,2046.24 -2390.36,2046.03 -2392.27,2046.69 -2393.58,2048.21 -2394.30,2050.61"/>
    </edge>
    <edge id=":J11_1" function="internal">
        <lane id=":J11_1_0" index="0" speed="13.89" length="15.21" shape="-2387.87,2046.24 -2402.55,2042.26"/>
    </edge>
    <edge id=":J11_2" function="internal">
        <lane id=":J11_2_0" index="0" speed="8.34" length="4.44" shape="-2387.87,2046.24 -2391.59,2044.79 -2391.92,2044.48"/>
    </edge>
    <edge id=":J11_9" function="internal">
        <lane id=":J11_9_0" index="0" speed="8.34" length="10.40" shape="-2391.92,2044.48 -2394.03,2042.47 -2395.18,2039.27 -2395.04,2035.19"/>
    </edge>
    <edge id=":J11_3" function="internal">
        <lane id=":J11_3_0" index="0" speed="6.91" length="9.89" shape="-2391.89,2035.74 -2391.99,2038.47 -2391.23,2040.61 -2389.61,2042.16 -2387.14,2043.12"/>
    </edge>
    <edge id=":J11_4" function="internal">
        <lane id=":J11_4_0" index="0" speed="13.89" length="15.07" shape="-2391.89,2035.74 -2394.30,2050.61"/>
    </edge>
    <edge id=":J11_5" function="internal">
        <lane id=":J11_5_0" index="0" speed="7.79" length="14.71" shape="-2391.89,2035.74 -2393.16,2039.65 -2395.36,2042.03 -2398.49,2042.91 -2402.55,2042.26"/>
    </edge>
    <edge id=":J11_6" function="internal">
        <lane id=":J11_6_0" index="0" speed="6.24" length="9.05" shape="-2401.60,2039.21 -2399.10,2039.60 -2397.18,2039.07 -2395.83,2037.60 -2395.04,2035.19"/>
    </edge>
    <edge id=":J11_7" function="internal">
        <lane id=":J11_7_0" index="0" speed="13.89" length="14.97" shape="-2401.60,2039.21 -2387.14,2043.12"/>
    </edge>
    <edge id=":J11_8" function="internal">
        <lane id=":J11_8_0" index="0" speed="8.69" length="4.07" shape="-2401.60,2039.21 -2397.91,2040.92"/>
    </edge>
    <edge id=":J11_10" function="internal">
        <lane id=":J11_10_0" index="0" speed="8.69" length="10.91" shape="-2397.91,2040.92 -2395.47,2043.39 -2394.26,2046.62 -2394.30,2050.61"/>
    </edge>
    <edge id=":J110_0" function="internal">
        <lane id=":J110_0_0" index="0" speed="6.23" length="9.05" shape="113.94,-342.33 111.44,-342.77 109.52,-342.26 108.15,-340.81 107.35,-338.41"/>
    </edge>
    <edge id=":J110_1" function="internal">
        <lane id=":J110_1_0" index="0" speed="13.89" length="15.30" shape="113.94,-342.33 99.37,-347.00"/>
    </edge>
    <edge id=":J110_2" function="internal">
        <lane id=":J110_2_0" index="0" speed="8.71" length="15.15" shape="113.94,-342.33 110.27,-344.13 107.87,-346.68 106.74,-349.99 106.89,-354.05"/>
    </edge>
    <edge id=":J110_3" function="internal">
        <lane id=":J110_3_0" index="0" speed="7.35" length="10.51" shape="110.04,-353.50 109.94,-350.68 110.72,-348.39 112.39,-346.62 114.93,-345.37"/>
    </edge>
    <edge id=":J110_4" function="internal">
        <lane id=":J110_4_0" index="0" speed="13.89" length="15.33" shape="110.04,-353.50 107.35,-338.41"/>
    </edge>
    <edge id=":J110_5" function="internal">
        <lane id=":J110_5_0" index="0" speed="7.79" length="4.11" shape="110.04,-353.50 108.76,-349.60"/>
    </edge>
    <edge id=":J110_12" function="internal">
        <lane id=":J110_12_0" index="0" speed="7.79" length="10.60" shape="108.76,-349.60 106.55,-347.21 103.42,-346.35 99.37,-347.00"/>
    </edge>
    <edge id=":J110_6" function="internal">
        <lane id=":J110_6_0" index="0" speed="6.25" length="9.05" shape="100.33,-350.06 102.82,-349.65 104.74,-350.19 106.10,-351.65 106.89,-354.05"/>
    </edge>
    <edge id=":J110_7" function="internal">
        <lane id=":J110_7_0" index="0" speed="13.89" length="15.34" shape="100.33,-350.06 114.93,-345.37"/>
    </edge>
    <edge id=":J110_8" function="internal">
        <lane id=":J110_8_0" index="0" speed="8.64" length="15.12" shape="100.33,-350.06 104.00,-348.32 106.40,-345.79 107.52,-342.49 107.35,-338.41"/>
    </edge>
    <edge id=":J110_9" function="internal">
        <lane id=":J110_9_0" index="0" speed="7.26" length="10.41" shape="104.20,-338.98 104.32,-341.79 103.55,-344.07 101.90,-345.80 99.37,-347.00"/>
    </edge>
    <edge id=":J110_10" function="internal">
        <lane id=":J110_10_0" index="0" speed="13.89" length="15.31" shape="104.20,-338.98 106.89,-354.05"/>
    </edge>
    <edge id=":J110_11" function="internal">
        <lane id=":J110_11_0" index="0" speed="7.77" length="4.12" shape="104.20,-338.98 105.51,-342.89"/>
    </edge>
    <edge id=":J110_13" function="internal">
        <lane id=":J110_13_0" index="0" speed="7.77" length="10.62" shape="105.51,-342.89 107.73,-345.26 110.87,-346.09 114.93,-345.37"/>
    </edge>
    <edge id=":J111_0" function="internal">
        <lane id=":J111_0_0" index="0" speed="6.53" length="8.23" shape="2264.54,117.07 2263.87,114.96 2262.69,113.48 2260.99,112.64 2258.78,112.43"/>
    </edge>
    <edge id=":J111_1" function="internal">
        <lane id=":J111_1_0" index="0" speed="8.92" length="12.58" shape="2264.54,117.07 2264.36,113.65 2265.05,110.69 2266.62,108.20 2269.06,106.18"/>
    </edge>
    <edge id=":J111_2" function="internal">
        <lane id=":J111_2_0" index="0" speed="7.49" length="8.72" shape="2270.75,108.90 2269.09,110.29 2268.04,112.02 2267.59,114.09 2267.75,116.50"/>
    </edge>
    <edge id=":J111_3" function="internal">
        <lane id=":J111_3_0" index="0" speed="13.89" length="12.65" shape="2270.75,108.90 2267.79,110.53 2265.04,111.57 2262.16,112.16 2258.78,112.43"/>
    </edge>
    <edge id=":J111_4" function="internal">
        <lane id=":J111_4_0" index="0" speed="13.89" length="11.05" shape="2258.64,109.23 2261.77,109.03 2264.13,108.61 2266.34,107.74 2269.06,106.18"/>
    </edge>
    <edge id=":J111_5" function="internal">
        <lane id=":J111_5_0" index="0" speed="8.06" length="3.49" shape="2258.64,109.23 2262.11,109.56"/>
    </edge>
    <edge id=":J111_6" function="internal">
        <lane id=":J111_6_0" index="0" speed="8.06" length="9.45" shape="2262.11,109.56 2264.79,110.88 2266.67,113.19 2267.75,116.50"/>
    </edge>
    <edge id=":J112_0" function="internal">
        <lane id=":J112_0_0" index="0" speed="9.79" length="10.83" shape="2416.22,24.79 2413.16,23.90 2410.39,23.63 2407.92,23.97 2405.74,24.93"/>
    </edge>
    <edge id=":J112_1" function="internal">
        <lane id=":J112_1_0" index="0" speed="7.80" length="14.68" shape="2416.22,24.79 2412.62,22.83 2410.67,20.23 2410.37,17.00 2411.71,13.13"/>
    </edge>
    <edge id=":J112_2" function="internal">