<?xml version="1.0" encoding="UTF-8"?>

<!-- generated on 2025-08-03 14:48:53 by Eclipse SUMO netedit Version 1.19.0
<configuration xmlns:xsi="http://www.w3.org/2001/XMLSchema-instance" xsi:noNamespaceSchemaLocation="http://sumo.dlr.de/xsd/neteditConfiguration.xsd">

    <input>
        <sumo-net-file value="C:\Users\Lucas\Lucas\traffic_optimization\traffic_optimization\NETWORKS\Hwy7_404_network\Hwy7_404.net.xml"/>
    </input>

    <output>
        <output-file value="C:\Users\Lucas\Lucas\traffic_optimization\traffic_optimization\NETWORKS\Hwy7_404_network\Hwy7_404.net.xml"/>
    </output>

    <processing>
        <geometry.min-radius.fix.railways value="false"/>
        <geometry.max-grade.fix value="false"/>
        <offset.disable-normalization value="true"/>
        <lefthand value="0"/>
    </processing>

    <junctions>
        <no-turnarounds value="true"/>
        <junctions.corner-detail value="5"/>
        <junctions.limit-turn-speed value="5.50"/>
        <rectangular-lane-cut value="0"/>
    </junctions>

    <pedestrian>
        <walkingareas value="0"/>
    </pedestrian>

</configuration>
-->

<net version="1.16" junctionCornerDetail="5" limitTurnSpeed="5.50" xmlns:xsi="http://www.w3.org/2001/XMLSchema-instance" xsi:noNamespaceSchemaLocation="http://sumo.dlr.de/xsd/net_file.xsd">

    <location netOffset="0.00,0.00" convBoundary="-2046.48,-1129.28,984.36,1349.59" origBoundary="-10000000000.00,-10000000000.00,10000000000.00,10000000000.00" projParameter="!"/>

    <edge id=":J0_0" function="internal">
        <lane id=":J0_0_0" index="0" speed="6.11" length="6.83" shape="-1454.51,480.24 -1456.03,479.22 -1456.96,477.94 -1457.29,476.39 -1457.02,474.58"/>
    </edge>
    <edge id=":J0_1" function="internal">
        <lane id=":J0_1_0" index="0" speed="3.92" length="2.28" shape="-1453.94,475.47 -1454.03,476.08 -1453.93,476.60 -1453.62,477.02 -1453.11,477.36"/>
    </edge>
    <edge id=":J1_0" function="internal">
        <lane id=":J1_0_0" index="0" speed="13.89" length="14.40" shape="-1636.52,259.29 -1650.34,255.23"/>
    </edge>
    <edge id=":J1_1" function="internal">
        <lane id=":J1_1_0" index="0" speed="7.99" length="4.07" shape="-1636.52,259.29 -1640.07,257.67 -1640.19,257.55"/>
    </edge>
    <edge id=":J1_6" function="internal">
        <lane id=":J1_6_0" index="0" speed="7.99" length="10.15" shape="-1640.19,257.55 -1642.24,255.31 -1643.04,252.20 -1642.45,248.34"/>
    </edge>
    <edge id=":J1_2" function="internal">
        <lane id=":J1_2_0" index="0" speed="6.49" length="9.03" shape="-1639.39,249.27 -1639.76,251.72 -1639.25,253.69 -1637.87,255.19 -1635.62,256.22"/>
    </edge>
    <edge id=":J1_3" function="internal">
        <lane id=":J1_3_0" index="0" speed="8.02" length="14.20" shape="-1639.39,249.27 -1641.02,252.80 -1643.39,254.98 -1646.50,255.79 -1650.34,255.23"/>
    </edge>
    <edge id=":J1_4" function="internal">
        <lane id=":J1_4_0" index="0" speed="6.53" length="9.07" shape="-1649.44,252.16 -1646.99,252.51 -1645.01,252.00 -1643.50,250.61 -1642.45,248.34"/>
    </edge>
    <edge id=":J1_5" function="internal">
        <lane id=":J1_5_0" index="0" speed="13.89" length="14.40" shape="-1649.44,252.16 -1635.62,256.22"/>
    </edge>
    <edge id=":J11_0" function="internal">
        <lane id=":J11_0_0" index="0" speed="6.57" length="9.03" shape="-1293.02,1080.90 -1295.47,1080.67 -1297.43,1081.27 -1298.89,1082.71 -1299.86,1084.98"/>
    </edge>
    <edge id=":J11_1" function="internal">
        <lane id=":J11_1_0" index="0" speed="13.89" length="14.83" shape="-1293.02,1080.90 -1307.33,1077.00"/>
    </edge>
    <edge id=":J11_2" function="internal">
        <lane id=":J11_2_0" index="0" speed="8.28" length="4.23" shape="-1293.02,1080.90 -1296.59,1079.46 -1296.86,1079.19"/>
    </edge>
    <edge id=":J11_12" function="internal">
        <lane id=":J11_12_0" index="0" speed="8.28" length="10.33" shape="-1296.86,1079.19 -1298.92,1077.15 -1300.00,1073.96 -1299.84,1069.91"/>
    </edge>
    <edge id=":J11_3" function="internal">
        <lane id=":J11_3_0" index="0" speed="6.85" length="9.63" shape="-1296.69,1070.45 -1296.81,1073.17 -1296.11,1075.30 -1294.60,1076.84 -1292.28,1077.78"/>
    </edge>
    <edge id=":J11_4" function="internal">
        <lane id=":J11_4_0" index="0" speed="13.89" length="14.87" shape="-1296.69,1070.45 -1297.36,1074.12 -1298.11,1077.75 -1298.94,1081.36 -1299.86,1084.98"/>
    </edge>
    <edge id=":J11_5" function="internal">
        <lane id=":J11_5_0" index="0" speed="7.80" length="14.69" shape="-1296.69,1070.45 -1297.96,1074.35 -1300.16,1076.74 -1303.28,1077.62 -1307.33,1077.00"/>
    </edge>
    <edge id=":J11_6" function="internal">
        <lane id=":J11_6_0" index="0" speed="6.25" length="9.05" shape="-1306.40,1073.94 -1303.90,1074.32 -1301.98,1073.78 -1300.63,1072.30 -1299.84,1069.91"/>
    </edge>
    <edge id=":J11_7" function="internal">
        <lane id=":J11_7_0" index="0" speed="13.89" length="14.63" shape="-1306.40,1073.94 -1292.28,1077.78"/>
    </edge>
    <edge id=":J11_8" function="internal">
        <lane id=":J11_8_0" index="0" speed="8.19" length="4.07" shape="-1306.40,1073.94 -1302.70,1075.63"/>
    </edge>
    <edge id=":J11_13" function="internal">
        <lane id=":J11_13_0" index="0" speed="8.19" length="10.45" shape="-1302.70,1075.63 -1300.38,1078.03 -1299.43,1081.15 -1299.86,1084.98"/>
    </edge>
    <edge id=":J11_9" function="internal">
        <lane id=":J11_9_0" index="0" speed="6.74" length="9.49" shape="-1302.95,1084.15 -1302.68,1081.69 -1303.33,1079.67 -1304.87,1078.11 -1307.33,1077.00"/>
    </edge>
    <edge id=":J11_10" function="internal">
        <lane id=":J11_10_0" index="0" speed="13.89" length="14.59" shape="-1302.95,1084.15 -1302.04,1080.58 -1301.23,1077.07 -1300.51,1073.53 -1299.84,1069.91"/>
    </edge>
    <edge id=":J11_11" function="internal">
        <lane id=":J11_11_0" index="0" speed="8.05" length="14.09" shape="-1302.95,1084.15 -1301.44,1080.61 -1299.16,1078.37 -1296.11,1077.43 -1292.28,1077.78"/>
    </edge>
    <edge id=":J12_0" function="internal">
        <lane id=":J12_0_0" index="0" speed="6.58" length="9.06" shape="-1169.88,398.09 -1172.36,397.98 -1174.30,398.69 -1175.69,400.19 -1176.55,402.50"/>
    </edge>
    <edge id=":J12_1" function="internal">
        <lane id=":J12_1_0" index="0" speed="13.89" length="14.96" shape="-1169.88,398.09 -1173.55,397.35 -1177.19,396.51 -1180.80,395.57 -1184.40,394.53"/>
    </edge>
    <edge id=":J12_2" function="internal">
        <lane id=":J12_2_0" index="0" speed="8.14" length="14.53" shape="-1169.88,398.09 -1173.54,396.83 -1175.93,394.63 -1177.07,391.49 -1176.94,387.42"/>
    </edge>
    <edge id=":J12_3" function="internal">
        <lane id=":J12_3_0" index="0" speed="6.67" length="9.43" shape="-1173.78,387.94 -1173.88,390.63 -1173.16,392.69 -1171.64,394.12 -1169.30,394.94"/>
    </edge>
    <edge id=":J12_4" function="internal">
        <lane id=":J12_4_0" index="0" speed="13.89" length="14.82" shape="-1173.78,387.94 -1176.55,402.50"/>
    </edge>
    <edge id=":J12_5" function="internal">
        <lane id=":J12_5_0" index="0" speed="7.79" length="4.35" shape="-1173.78,387.94 -1175.03,391.86 -1175.20,392.04"/>
    </edge>
    <edge id=":J12_12" function="internal">
        <lane id=":J12_12_0" index="0" speed="7.79" length="10.35" shape="-1175.20,392.04 -1177.22,394.26 -1180.34,395.15 -1184.40,394.53"/>
    </edge>
    <edge id=":J12_6" function="internal">
        <lane id=":J12_6_0" index="0" speed="6.24" length="9.05" shape="-1183.47,391.46 -1180.97,391.85 -1179.05,391.30 -1177.71,389.82 -1176.94,387.42"/>
    </edge>
    <edge id=":J12_7" function="internal">
        <lane id=":J12_7_0" index="0" speed="13.89" length="14.60" shape="-1183.47,391.46 -1179.93,392.49 -1176.43,393.41 -1172.92,394.22 -1169.30,394.94"/>
    </edge>
    <edge id=":J12_8" function="internal">
        <lane id=":J12_8_0" index="0" speed="8.36" length="14.60" shape="-1183.47,391.46 -1179.76,393.15 -1177.38,395.55 -1176.30,398.67 -1176.55,402.50"/>
    </edge>
    <edge id=":J12_9" function="internal">
        <lane id=":J12_9_0" index="0" speed="6.94" length="9.74" shape="-1179.68,401.83 -1179.53,399.31 -1180.27,397.25 -1181.89,395.66 -1184.40,394.53"/>
    </edge>
    <edge id=":J12_10" function="internal">
        <lane id=":J12_10_0" index="0" speed="13.89" length="14.67" shape="-1179.68,401.83 -1176.94,387.42"/>
    </edge>
    <edge id=":J12_11" function="internal">
        <lane id=":J12_11_0" index="0" speed="8.07" length="3.84" shape="-1179.68,401.83 -1178.35,398.23"/>
    </edge>
    <edge id=":J12_13" function="internal">
        <lane id=":J12_13_0" index="0" speed="8.07" length="10.27" shape="-1178.35,398.23 -1176.17,395.88 -1173.16,394.78 -1169.30,394.94"/>
    </edge>
    <edge id=":J14_0" function="internal">
        <lane id=":J14_0_0" index="0" speed="6.26" length="9.04" shape="-1067.28,-209.95 -1069.78,-210.31 -1071.70,-209.76 -1073.04,-208.28 -1073.82,-205.88"/>
    </edge>
    <edge id=":J14_1" function="internal">
        <lane id=":J14_1_0" index="0" speed="13.89" length="14.97" shape="-1067.28,-209.95 -1081.71,-213.91"/>
    </edge>
    <edge id=":J14_2" function="internal">
        <lane id=":J14_2_0" index="0" speed="8.53" length="14.87" shape="-1067.28,-209.95 -1070.97,-211.62 -1073.39,-214.06 -1074.52,-217.27 -1074.38,-221.24"/>
    </edge>
    <edge id=":J14_3" function="internal">
        <lane id=":J14_3_0" index="0" speed="7.13" length="10.12" shape="-1071.23,-220.68 -1071.33,-217.98 -1070.55,-215.81 -1068.89,-214.15 -1066.37,-213.01"/>
    </edge>
    <edge id=":J14_4" function="internal">
        <lane id=":J14_4_0" index="0" speed="13.89" length="15.02" shape="-1071.23,-220.68 -1073.82,-205.88"/>
    </edge>
    <edge id=":J14_5" function="internal">
        <lane id=":J14_5_0" index="0" speed="7.88" length="4.00" shape="-1071.23,-220.68 -1072.49,-216.88"/>
    </edge>
    <edge id=":J14_12" function="internal">
        <lane id=":J14_12_0" index="0" speed="7.88" length="10.46" shape="-1072.49,-216.88 -1074.66,-214.49 -1077.73,-213.50 -1081.71,-213.91"/>
    </edge>
    <edge id=":J14_6" function="internal">
        <lane id=":J14_6_0" index="0" speed="6.36" length="9.04" shape="-1080.93,-217.01 -1078.45,-216.75 -1076.52,-217.37 -1075.17,-218.87 -1074.38,-221.24"/>
    </edge>
    <edge id=":J14_7" function="internal">
        <lane id=":J14_7_0" index="0" speed="13.89" length="15.10" shape="-1080.93,-217.01 -1066.37,-213.01"/>
    </edge>
    <edge id=":J14_8" function="internal">
        <lane id=":J14_8_0" index="0" speed="8.40" length="14.82" shape="-1080.93,-217.01 -1077.25,-215.50 -1074.84,-213.14 -1073.69,-209.93 -1073.82,-205.88"/>
    </edge>
    <edge id=":J14_9" function="internal">
        <lane id=":J14_9_0" index="0" speed="6.99" length="9.95" shape="-1076.97,-206.41 -1076.88,-209.15 -1077.64,-211.31 -1079.25,-212.90 -1081.71,-213.91"/>
    </edge>
    <edge id=":J14_10" function="internal">
        <lane id=":J14_10_0" index="0" speed="13.89" length="15.05" shape="-1076.97,-206.41 -1074.38,-221.24"/>
    </edge>
    <edge id=":J14_11" function="internal">
        <lane id=":J14_11_0" index="0" speed="7.80" length="4.21" shape="-1076.97,-206.41 -1075.72,-210.31 -1075.64,-210.40"/>
    </edge>
    <edge id=":J14_13" function="internal">
        <lane id=":J14_13_0" index="0" speed="7.80" length="10.46" shape="-1075.64,-210.40 -1073.53,-212.71 -1070.42,-213.61 -1066.37,-213.01"/>
    </edge>
    <edge id=":J15_0" function="internal">
        <lane id=":J15_0_0" index="0" speed="13.89" length="0.26" shape="-1010.69,-549.04 -1010.74,-548.78"/>
    </edge>
    <edge id=":J15_1" function="internal">
        <lane id=":J15_1_0" index="0" speed="13.89" length="0.31" shape="-1013.89,-549.38 -1013.83,-549.68"/>
    </edge>
    <edge id=":J16_0" function="internal">
        <lane id=":J16_0_0" index="0" speed="13.89" length="0.31" shape="-993.04,-634.66 -993.10,-634.36"/>
    </edge>
    <edge id=":J16_1" function="internal">
        <lane id=":J16_1_0" index="0" speed="13.89" length="0.26" shape="-996.24,-635.00 -996.18,-635.26"/>
    </edge>
    <edge id=":J17_0" function="internal">
        <lane id=":J17_0_0" index="0" speed="13.89" length="0.30" shape="-916.89,-1034.78 -916.95,-1034.48"/>
    </edge>
    <edge id=":J17_1" function="internal">
        <lane id=":J17_1_0" index="0" speed="13.89" length="0.29" shape="-920.09,-1035.08 -920.04,-1035.37"/>
    </edge>
    <edge id=":J2_0" function="internal">
        <lane id=":J2_0_0" index="0" speed="6.12" length="6.60" shape="-1943.63,155.47 -1945.12,154.53 -1946.07,153.32 -1946.47,151.83 -1946.33,150.08"/>
    </edge>
    <edge id=":J2_1" function="internal">
        <lane id=":J2_1_0" index="0" speed="3.93" length="2.20" shape="-1943.21,150.76 -1943.25,151.34 -1943.12,151.84 -1942.80,152.24 -1942.31,152.55"/>
    </edge>
    <edge id=":J20_0" function="internal">
        <lane id=":J20_0_0" index="0" speed="7.12" length="9.75" shape="-1650.94,972.32 -1653.36,971.98 -1655.47,972.55 -1657.27,974.01 -1658.77,976.37"/>
    </edge>
    <edge id=":J20_1" function="internal">
        <lane id=":J20_1_0" index="0" speed="13.89" length="14.40" shape="-1650.94,972.32 -1664.64,967.88"/>
    </edge>
    <edge id=":J20_2" function="internal">
        <lane id=":J20_2_0" index="0" speed="13.89" length="14.30" shape="-1663.61,964.85 -1650.01,969.26"/>
    </edge>
    <edge id=":J20_3" function="internal">
        <lane id=":J20_3_0" index="0" speed="7.80" length="4.09" shape="-1663.61,964.85 -1659.97,966.71"/>
    </edge>
    <edge id=":J20_6" function="internal">
        <lane id=":J20_6_0" index="0" speed="7.80" length="10.58" shape="-1659.97,966.71 -1657.95,969.25 -1657.55,972.47 -1658.77,976.37"/>
    </edge>
    <edge id=":J20_4" function="internal">
        <lane id=":J20_4_0" index="0" speed="6.26" length="9.04" shape="-1661.66,974.99 -1660.91,972.58 -1661.15,970.59 -1662.40,969.03 -1664.64,967.88"/>
    </edge>
    <edge id=":J20_5" function="internal">
        <lane id=":J20_5_0" index="0" speed="8.52" length="14.36" shape="-1661.66,974.99 -1659.48,971.59 -1656.81,969.51 -1653.65,968.73 -1650.01,969.26"/>
    </edge>
    <edge id=":J21_0" function="internal">
        <lane id=":J21_0_0" index="0" speed="7.76" length="11.75" shape="-1714.73,-587.43 -1718.08,-587.51 -1720.75,-586.68 -1722.73,-584.93 -1724.02,-582.26"/>
    </edge>
    <edge id=":J21_1" function="internal">
        <lane id=":J21_1_0" index="0" speed="13.89" length="16.66" shape="-1714.73,-587.43 -1731.27,-589.47"/>
    </edge>
    <edge id=":J21_2" function="internal">
        <lane id=":J21_2_0" index="0" speed="7.48" length="4.45" shape="-1714.73,-587.43 -1719.01,-588.67"/>
    </edge>
    <edge id=":J21_12" function="internal">
        <lane id=":J21_12_0" index="0" speed="7.48" length="11.58" shape="-1719.01,-588.67 -1719.24,-588.74 -1721.62,-591.05 -1721.88,-594.36 -1720.01,-598.67"/>
    </edge>
    <edge id=":J21_3" function="internal">
        <lane id=":J21_3_0" index="0" speed="5.81" length="9.14" shape="-1717.28,-597.01 -1718.35,-594.55 -1718.20,-592.66 -1716.84,-591.35 -1714.27,-590.60"/>
    </edge>
    <edge id=":J21_4" function="internal">
        <lane id=":J21_4_0" index="0" speed="13.89" length="16.24" shape="-1717.28,-597.01 -1719.23,-593.57 -1721.08,-589.83 -1722.72,-585.99 -1724.02,-582.26"/>
    </edge>
    <edge id=":J21_5" function="internal">
        <lane id=":J21_5_0" index="0" speed="10.58" length="16.82" shape="-1717.28,-597.01 -1720.08,-593.38 -1723.34,-590.92 -1727.07,-589.62 -1731.27,-589.47"/>
    </edge>
    <edge id=":J21_6" function="internal">
        <lane id=":J21_6_0" index="0" speed="9.43" length="13.22" shape="-1730.96,-592.66 -1727.70,-592.78 -1724.79,-593.82 -1722.23,-595.79 -1720.01,-598.67"/>
    </edge>
    <edge id=":J21_7" function="internal">
        <lane id=":J21_7_0" index="0" speed="13.89" length="16.81" shape="-1730.96,-592.66 -1714.27,-590.60"/>
    </edge>
    <edge id=":J21_8" function="internal">
        <lane id=":J21_8_0" index="0" speed="7.69" length="4.46" shape="-1730.96,-592.66 -1726.85,-591.64 -1726.67,-591.50"/>
    </edge>
    <edge id=":J21_13" function="internal">
        <lane id=":J21_13_0" index="0" speed="7.69" length="10.54" shape="-1726.67,-591.50 -1724.32,-589.58 -1723.38,-586.45 -1724.02,-582.26"/>
    </edge>
    <edge id=":J21_9" function="internal">
        <lane id=":J21_9_0" index="0" speed="6.12" length="9.06" shape="-1727.08,-583.19 -1726.69,-585.72 -1727.26,-587.61 -1728.79,-588.86 -1731.27,-589.47"/>
    </edge>
    <edge id=":J21_10" function="internal">
        <lane id=":J21_10_0" index="0" speed="13.89" length="17.05" shape="-1727.08,-583.19 -1725.73,-587.03 -1723.98,-591.13 -1722.01,-595.13 -1720.01,-598.67"/>
    </edge>
    <edge id=":J21_11" function="internal">
        <lane id=":J21_11_0" index="0" speed="9.06" length="16.36" shape="-1727.08,-583.19 -1725.27,-586.99 -1722.53,-589.48 -1718.86,-590.69 -1714.27,-590.60"/>
    </edge>
    <edge id=":J23_0" function="internal">
        <lane id=":J23_0_0" index="0" speed="6.07" length="9.07" shape="-1342.80,-531.12 -1345.27,-531.80 -1347.20,-531.45 -1348.58,-530.06 -1349.42,-527.62"/>
    </edge>
    <edge id=":J23_1" function="internal">
        <lane id=":J23_1_0" index="0" speed="13.89" length="14.83" shape="-1342.80,-531.12 -1346.25,-532.51 -1349.76,-533.68 -1353.33,-534.60 -1356.99,-535.28"/>
    </edge>
    <edge id=":J23_2" function="internal">
        <lane id=":J23_2_0" index="0" speed="9.34" length="15.33" shape="-1342.80,-531.12 -1346.42,-533.26 -1348.87,-535.99 -1350.12,-539.31 -1350.20,-543.21"/>
    </edge>
    <edge id=":J23_3" function="internal">
        <lane id=":J23_3_0" index="0" speed="8.05" length="11.20" shape="-1347.02,-542.82 -1346.96,-540.01 -1346.02,-537.61 -1344.20,-535.62 -1341.51,-534.05"/>
    </edge>
    <edge id=":J23_4" function="internal">
        <lane id=":J23_4_0" index="0" speed="13.89" length="15.39" shape="-1347.02,-542.82 -1349.42,-527.62"/>
    </edge>
    <edge id=":J23_5" function="internal">
        <lane id=":J23_5_0" index="0" speed="7.97" length="4.34" shape="-1347.02,-542.82 -1348.05,-539.04 -1348.31,-538.71"/>
    </edge>
    <edge id=":J23_12" function="internal">
        <lane id=":J23_12_0" index="0" speed="7.97" length="9.99" shape="-1348.31,-538.71 -1350.06,-536.51 -1353.04,-535.26 -1356.99,-535.28"/>
    </edge>
    <edge id=":J23_6" function="internal">
        <lane id=":J23_6_0" index="0" speed="6.48" length="9.09" shape="-1356.53,-538.44 -1354.02,-538.43 -1352.13,-539.22 -1350.85,-540.82 -1350.20,-543.21"/>
    </edge>
    <edge id=":J23_7" function="internal">
        <lane id=":J23_7_0" index="0" speed="13.89" length="15.69" shape="-1356.53,-538.44 -1352.74,-537.73 -1348.88,-536.73 -1345.09,-535.48 -1341.51,-534.05"/>
    </edge>
    <edge id=":J23_8" function="internal">
        <lane id=":J23_8_0" index="0" speed="8.07" length="14.90" shape="-1356.53,-538.44 -1352.74,-537.28 -1350.30,-535.09 -1349.19,-531.87 -1349.42,-527.62"/>
    </edge>
    <edge id=":J23_9" function="internal">
        <lane id=":J23_9_0" index="0" speed="6.59" length="9.59" shape="-1352.56,-528.22 -1352.40,-531.00 -1353.08,-533.10 -1354.61,-534.53 -1356.99,-535.28"/>
    </edge>
    <edge id=":J23_10" function="internal">
        <lane id=":J23_10_0" index="0" speed="13.89" length="15.18" shape="-1352.56,-528.22 -1350.20,-543.21"/>
    </edge>
    <edge id=":J23_11" function="internal">
        <lane id=":J23_11_0" index="0" speed="7.66" length="4.10" shape="-1352.56,-528.22 -1351.23,-532.09"/>
    </edge>
    <edge id=":J23_13" function="internal">
        <lane id=":J23_13_0" index="0" speed="7.66" length="11.03" shape="-1351.23,-532.09 -1351.17,-532.28 -1348.87,-534.60 -1345.65,-535.19 -1341.51,-534.05"/>
    </edge>
    <edge id=":J24_0" function="internal">
        <lane id=":J24_0_0" index="0" speed="13.89" length="14.52" shape="-1037.48,-408.05 -1040.13,-393.77"/>
    </edge>
    <edge id=":J24_1" function="internal">
        <lane id=":J24_1_0" index="0" speed="7.66" length="4.29" shape="-1037.48,-408.05 -1038.87,-403.99"/>
    </edge>
    <edge id=":J24_6" function="internal">
        <lane id=":J24_6_0" index="0" speed="7.66" length="10.84" shape="-1038.87,-403.99 -1041.18,-401.67 -1044.40,-401.08 -1048.53,-402.22"/>
    </edge>
    <edge id=":J24_2" function="internal">
        <lane id=":J24_2_0" index="0" speed="6.07" length="9.07" shape="-1047.25,-405.15 -1044.77,-404.47 -1042.84,-404.82 -1041.46,-406.21 -1040.63,-408.64"/>
    </edge>
    <edge id=":J24_3" function="internal">
        <lane id=":J24_3_0" index="0" speed="8.91" length="14.63" shape="-1047.25,-405.15 -1043.62,-403.04 -1041.22,-400.44 -1040.06,-397.35 -1040.13,-393.77"/>
    </edge>
    <edge id=":J24_4" function="internal">
        <lane id=":J24_4_0" index="0" speed="7.56" length="10.31" shape="-1043.28,-394.33 -1043.26,-396.77 -1044.13,-398.89 -1045.89,-400.71 -1048.53,-402.22"/>
    </edge>
    <edge id=":J24_5" function="internal">
        <lane id=":J24_5_0" index="0" speed="13.89" length="14.56" shape="-1043.28,-394.33 -1040.63,-408.64"/>
    </edge>
    <edge id=":J25_0" function="internal">
        <lane id=":J25_0_0" index="0" speed="6.03" length="9.07" shape="-1227.58,706.29 -1230.06,705.57 -1231.98,705.91 -1233.34,707.31 -1234.14,709.77"/>
    </edge>
    <edge id=":J25_1" function="internal">
        <lane id=":J25_1_0" index="0" speed="9.12" length="14.68" shape="-1227.58,706.29 -1231.23,704.14 -1233.69,701.53 -1234.95,698.46 -1235.02,694.93"/>
    </edge>
    <edge id=":J25_2" function="internal">
        <lane id=":J25_2_0" index="0" speed="7.80" length="10.53" shape="-1231.85,695.37 -1231.78,697.81 -1230.82,699.95 -1228.98,701.80 -1226.26,703.37"/>
    </edge>
    <edge id=":J25_3" function="internal">
        <lane id=":J25_3_0" index="0" speed="13.89" length="14.58" shape="-1231.85,695.37 -1234.14,709.77"/>
    </edge>
    <edge id=":J25_4" function="internal">
        <lane id=":J25_4_0" index="0" speed="13.89" length="14.48" shape="-1237.30,709.22 -1235.02,694.93"/>
    </edge>
    <edge id=":J25_5" function="internal">
        <lane id=":J25_5_0" index="0" speed="7.62" length="4.34" shape="-1237.30,709.22 -1235.95,705.09"/>
    </edge>
    <edge id=":J25_6" function="internal">
        <lane id=":J25_6_0" index="0" speed="7.62" length="10.90" shape="-1235.95,705.09 -1233.67,702.74 -1230.44,702.17 -1226.26,703.37"/>
    </edge>
    <edge id=":J26_0" function="internal">
        <lane id=":J26_0_0" index="0" speed="13.89" length="14.88" shape="-1145.08,1115.51 -1159.69,1112.70"/>
    </edge>
    <edge id=":J26_1" function="internal">
        <lane id=":J26_1_0" index="0" speed="7.68" length="4.57" shape="-1145.08,1115.51 -1149.14,1114.28 -1149.38,1114.06"/>
    </edge>
    <edge id=":J26_6" function="internal">
        <lane id=":J26_6_0" index="0" speed="7.68" length="10.45" shape="-1149.38,1114.06 -1151.55,1112.07 -1152.31,1108.89 -1151.42,1104.74"/>
    </edge>
    <edge id=":J26_2" function="internal">
        <lane id=":J26_2_0" index="0" speed="6.11" length="9.06" shape="-1148.41,1105.85 -1148.95,1108.36 -1148.50,1110.27 -1147.04,1111.60 -1144.59,1112.35"/>
    </edge>
    <edge id=":J26_3" function="internal">
        <lane id=":J26_3_0" index="0" speed="8.50" length="14.66" shape="-1148.41,1105.85 -1150.34,1109.57 -1152.86,1111.95 -1155.97,1112.99 -1159.69,1112.70"/>
    </edge>
    <edge id=":J26_4" function="internal">
        <lane id=":J26_4_0" index="0" speed="7.10" length="9.94" shape="-1158.95,1109.59 -1156.50,1109.76 -1154.43,1109.00 -1152.73,1107.33 -1151.42,1104.74"/>
    </edge>
    <edge id=":J26_5" function="internal">
        <lane id=":J26_5_0" index="0" speed="13.89" length="14.62" shape="-1158.95,1109.59 -1144.59,1112.35"/>
    </edge>
    <edge id=":J28_0" function="internal">
        <lane id=":J28_0_0" index="0" speed="13.89" length="12.12" shape="-1028.50,788.37 -1030.60,790.91 -1032.12,793.21 -1033.35,795.68 -1034.57,798.75"/>
    </edge>
    <edge id=":J28_1" function="internal">
        <lane id=":J28_1_0" index="0" speed="8.73" length="3.48" shape="-1028.50,788.37 -1031.05,790.56 -1031.16,790.60"/>
    </edge>
    <edge id=":J28_6" function="internal">
        <lane id=":J28_6_0" index="0" speed="8.73" length="9.72" shape="-1031.16,790.60 -1033.91,791.66 -1037.06,791.67 -1040.52,790.59"/>
    </edge>
    <edge id=":J28_2" function="internal">
        <lane id=":J28_2_0" index="0" speed="7.34" length="9.09" shape="-1039.20,787.67 -1036.79,788.43 -1034.60,788.45 -1032.64,787.73 -1030.90,786.25"/>
    </edge>
    <edge id=":J28_3" function="internal">
        <lane id=":J28_3_0" index="0" speed="8.02" length="13.50" shape="-1039.20,787.67 -1036.10,789.63 -1034.30,792.13 -1033.79,795.17 -1034.57,798.75"/>
    </edge>
    <edge id=":J28_4" function="internal">
        <lane id=":J28_4_0" index="0" speed="6.52" length="8.59" shape="-1037.57,797.64 -1037.07,795.36 -1037.40,793.42 -1038.55,791.83 -1040.52,790.59"/>
    </edge>
    <edge id=":J28_5" function="internal">
        <lane id=":J28_5_0" index="0" speed="13.89" length="13.28" shape="-1037.57,797.64 -1036.26,794.41 -1034.82,791.60 -1033.09,788.96 -1030.90,786.25"/>
    </edge>
    <edge id=":J3_0" function="internal">
        <lane id=":J3_0_0" index="0" speed="8.47" length="13.23" shape="-1784.36,-362.77 -1787.30,-362.74 -1789.92,-361.53 -1792.21,-359.13 -1794.17,-355.55"/>
    </edge>
    <edge id=":J3_1" function="internal">
        <lane id=":J3_1_0" index="0" speed="13.89" length="17.02" shape="-1784.36,-362.77 -1788.39,-363.15 -1792.83,-363.03 -1797.26,-362.53 -1801.26,-361.77"/>
    </edge>
    <edge id=":J3_2" function="internal">
        <lane id=":J3_2_0" index="0" speed="7.81" length="14.66" shape="-1784.36,-362.77 -1788.23,-364.06 -1790.61,-366.27 -1791.49,-369.39 -1790.87,-373.43"/>
    </edge>
    <edge id=":J3_3" function="internal">
        <lane id=":J3_3_0" index="0" speed="6.27" length="9.04" shape="-1787.81,-372.49 -1788.19,-370.00 -1787.65,-368.08 -1786.18,-366.71 -1783.79,-365.92"/>
    </edge>
    <edge id=":J3_4" function="internal">
        <lane id=":J3_4_0" index="0" speed="13.89" length="18.10" shape="-1787.81,-372.49 -1789.14,-368.47 -1790.79,-363.95 -1792.55,-359.46 -1794.17,-355.55"/>
    </edge>
    <edge id=":J3_5" function="internal">
        <lane id=":J3_5_0" index="0" speed="11.35" length="4.49" shape="-1787.81,-372.49 -1789.66,-369.28 -1790.22,-368.73"/>
    </edge>
    <edge id=":J3_12" function="internal">
        <lane id=":J3_12_0" index="0" speed="11.35" length="13.22" shape="-1790.22,-368.73 -1792.94,-366.08 -1797.02,-363.41 -1801.26,-361.77"/>
    </edge>
    <edge id=":J3_6" function="internal">
        <lane id=":J3_6_0" index="0" speed="10.37" length="14.68" shape="-1801.99,-364.88 -1797.85,-366.22 -1794.62,-368.09 -1792.29,-370.50 -1790.87,-373.43"/>
    </edge>
    <edge id=":J3_7" function="internal">
        <lane id=":J3_7_0" index="0" speed="13.89" length="18.32" shape="-1801.99,-364.88 -1797.78,-365.65 -1792.91,-366.16 -1788.02,-366.29 -1783.79,-365.92"/>
    </edge>
    <edge id=":J3_8" function="internal">
        <lane id=":J3_8_0" index="0" speed="7.38" length="17.71" shape="-1801.99,-364.88 -1796.56,-365.46 -1793.45,-364.09 -1792.65,-360.79 -1794.17,-355.55"/>
    </edge>
    <edge id=":J3_9" function="internal">
        <lane id=":J3_9_0" index="0" speed="5.56" length="9.39" shape="-1797.11,-356.82 -1796.30,-359.60 -1796.73,-361.35 -1798.38,-362.07 -1801.26,-361.77"/>
    </edge>
    <edge id=":J3_10" function="internal">
        <lane id=":J3_10_0" index="0" speed="13.89" length="17.75" shape="-1797.11,-356.82 -1795.50,-360.68 -1793.79,-365.05 -1792.18,-369.46 -1790.87,-373.43"/>
    </edge>
    <edge id=":J3_11" function="internal">
        <lane id=":J3_11_0" index="0" speed="9.52" length="5.35" shape="-1797.11,-356.82 -1794.74,-360.43 -1793.98,-361.12"/>
    </edge>
    <edge id=":J3_13" function="internal">
        <lane id=":J3_13_0" index="0" speed="9.52" length="11.61" shape="-1793.98,-361.12 -1791.29,-363.51 -1787.41,-365.52 -1783.79,-365.92"/>
    </edge>
    <edge id=":J31_0" function="internal">
        <lane id=":J31_0_0" index="0" speed="13.89" length="52.40" shape="-1829.87,206.30 -1880.26,191.90"/>
    </edge>
    <edge id=":J31_1" function="internal">
        <lane id=":J31_1_0" index="0" speed="13.89" length="7.47" shape="-1829.87,206.30 -1836.83,203.58"/>
    </edge>
    <edge id=":J31_6" function="internal">
        <lane id=":J31_6_0" index="0" speed="13.89" length="45.11" shape="-1836.83,203.58 -1838.81,202.80 -1854.08,196.12 -1869.29,189.28 -1878.06,185.29"/>
    </edge>
    <edge id=":J31_2" function="internal">
        <lane id=":J31_2_0" index="0" speed="13.89" length="51.98" shape="-1876.74,182.38 -1868.06,186.33 -1853.04,193.11 -1837.96,199.73 -1829.11,203.19"/>
    </edge>
    <edge id=":J31_3" function="internal">
        <lane id=":J31_3_0" index="0" speed="5.75" length="14.26" shape="-1876.74,182.38 -1874.36,185.07 -1874.54,188.60 -1876.70,191.40 -1880.26,191.90"/>
    </edge>
    <edge id=":J31_4" function="internal">
        <lane id=":J31_4_0" index="0" speed="7.57" length="26.31" shape="-1879.37,188.83 -1869.91,191.32 -1866.55,191.56 -1869.26,189.55 -1878.06,185.29"/>
    </edge>
    <edge id=":J31_5" function="internal">
        <lane id=":J31_5_0" index="0" speed="13.89" length="52.27" shape="-1879.37,188.83 -1829.11,203.19"/>
    </edge>
    <edge id=":J32_0" function="internal">
        <lane id=":J32_0_0" index="0" speed="6.48" length="9.03" shape="-1404.77,327.48 -1407.21,327.10 -1409.19,327.60 -1410.69,328.98 -1411.72,331.23"/>
    </edge>
    <edge id=":J32_1" function="internal">
        <lane id=":J32_1_0" index="0" speed="13.89" length="14.42" shape="-1404.77,327.48 -1418.58,323.34"/>
    </edge>
    <edge id=":J32_2" function="internal">