<?xml version="1.0" encoding="UTF-8"?>

<!-- generated on 2025-03-11 22:12:41 by Eclipse SUMO netedit Version 1.19.0
<configuration xmlns:xsi="http://www.w3.org/2001/XMLSchema-instance" xsi:noNamespaceSchemaLocation="http://sumo.dlr.de/xsd/neteditConfiguration.xsd">

    <input>
        <sumo-net-file value="C:\Users\Lucas\Lucas\traffic_optimization\traffic_optimization\NETWORKS\diamond_network\diamond_network.net.xml"/>
    </input>

    <output>
        <output-file value="C:\Users\Lucas\Lucas\traffic_optimization\traffic_optimization\NETWORKS\diamond_network\diamond_network.net.xml"/>
    </output>

    <processing>
        <geometry.min-radius.fix.railways value="false"/>
        <geometry.max-grade.fix value="false"/>
        <offset.disable-normalization value="true"/>
        <lefthand value="0"/>
    </processing>

    <junctions>
        <no-turnarounds value="true"/>
        <junctions.corner-detail value="5"/>
        <junctions.limit-turn-speed value="5.50"/>
        <rectangular-lane-cut value="0"/>
    </junctions>

    <pedestrian>
        <walkingareas value="0"/>
    </pedestrian>

</configuration>
-->

<net version="1.16" junctionCornerDetail="5" limitTurnSpeed="5.50" xmlns:xsi="http://www.w3.org/2001/XMLSchema-instance" xsi:noNamespaceSchemaLocation="http://sumo.dlr.de/xsd/net_file.xsd">

    <location netOffset="0.00,0.00" convBoundary="-300.00,-500.00,300.00,100.00" origBoundary="-10000000000.00,-10000000000.00,10000000000.00,10000000000.00" projParameter="!"/>

    <edge id=":J1_0" function="internal">
        <lane id=":J1_0_0" index="0" speed="10.77" length="10.63" shape="-1.60,-94.67 -1.89,-97.00 -2.76,-99.33 -4.20,-101.65 -6.22,-103.96"/>
    </edge>
    <edge id=":J1_1" function="internal">
        <lane id=":J1_1_0" index="0" speed="11.94" length="13.14" shape="-1.60,-94.67 -1.25,-97.64 -0.21,-100.56 1.53,-103.42 3.96,-106.22"/>
    </edge>
    <edge id=":J1_2" function="internal">
        <lane id=":J1_2_0" index="0" speed="10.77" length="10.63" shape="6.22,-103.96 4.20,-101.65 2.76,-99.33 1.89,-97.00 1.60,-94.67"/>
    </edge>
    <edge id=":J1_3" function="internal">
        <lane id=":J1_3_0" index="0" speed="8.00" length="3.37" shape="6.22,-103.96 3.53,-101.94"/>
    </edge>
    <edge id=":J1_6" function="internal">
        <lane id=":J1_6_0" index="0" speed="8.00" length="10.83" shape="3.53,-101.94 3.11,-101.63 0.00,-100.85 -3.11,-101.63 -6.22,-103.96"/>
    </edge>
    <edge id=":J1_4" function="internal">
        <lane id=":J1_4_0" index="0" speed="6.51" length="9.03" shape="-3.96,-106.22 -1.98,-104.74 0.00,-104.24 1.98,-104.74 3.96,-106.22"/>
    </edge>
    <edge id=":J1_5" function="internal">
        <lane id=":J1_5_0" index="0" speed="11.94" length="13.14" shape="-3.96,-106.22 -1.53,-103.42 0.21,-100.56 1.25,-97.64 1.60,-94.67"/>
    </edge>
    <edge id=":J2_0" function="internal">
        <lane id=":J2_0_0" index="0" speed="10.77" length="10.63" shape="-96.04,-193.78 -98.35,-195.80 -100.67,-197.24 -103.00,-198.11 -105.33,-198.40"/>
    </edge>
    <edge id=":J2_1" function="internal">
        <lane id=":J2_1_0" index="0" speed="8.00" length="3.37" shape="-96.04,-193.78 -98.06,-196.47"/>
    </edge>
    <edge id=":J2_6" function="internal">
        <lane id=":J2_6_0" index="0" speed="8.00" length="10.83" shape="-98.06,-196.47 -98.37,-196.89 -99.15,-200.00 -98.37,-203.11 -96.04,-206.22"/>
    </edge>
    <edge id=":J2_2" function="internal">
        <lane id=":J2_2_0" index="0" speed="6.51" length="9.03" shape="-93.78,-203.96 -95.26,-201.98 -95.76,-200.00 -95.26,-198.02 -93.78,-196.04"/>
    </edge>
    <edge id=":J2_3" function="internal">
        <lane id=":J2_3_0" index="0" speed="11.94" length="13.14" shape="-93.78,-203.96 -96.58,-201.53 -99.44,-199.79 -102.36,-198.75 -105.33,-198.40"/>
    </edge>
    <edge id=":J2_4" function="internal">
        <lane id=":J2_4_0" index="0" speed="10.77" length="10.63" shape="-105.33,-201.60 -103.00,-201.89 -100.67,-202.76 -98.35,-204.20 -96.04,-206.22"/>
    </edge>
    <edge id=":J2_5" function="internal">
        <lane id=":J2_5_0" index="0" speed="11.94" length="13.14" shape="-105.33,-201.60 -102.36,-201.25 -99.44,-200.21 -96.58,-198.47 -93.78,-196.04"/>
    </edge>
    <edge id=":J3_0" function="internal">
        <lane id=":J3_0_0" index="0" speed="10.77" length="10.63" shape="105.33,-198.40 103.00,-198.11 100.67,-197.24 98.35,-195.80 96.04,-193.78"/>
    </edge>
    <edge id=":J3_1" function="internal">
        <lane id=":J3_1_0" index="0" speed="11.94" length="13.14" shape="105.33,-198.40 102.36,-198.75 99.44,-199.79 96.58,-201.53 93.78,-203.96"/>
    </edge>
    <edge id=":J3_2" function="internal">
        <lane id=":J3_2_0" index="0" speed="10.77" length="10.63" shape="96.04,-206.22 98.35,-204.20 100.67,-202.76 103.00,-201.89 105.33,-201.60"/>
    </edge>
    <edge id=":J3_3" function="internal">
        <lane id=":J3_3_0" index="0" speed="8.00" length="3.37" shape="96.04,-206.22 98.06,-203.53"/>
    </edge>
    <edge id=":J3_6" function="internal">
        <lane id=":J3_6_0" index="0" speed="8.00" length="10.83" shape="98.06,-203.53 98.37,-203.11 99.15,-200.00 98.37,-196.89 96.04,-193.78"/>
    </edge>
    <edge id=":J3_4" function="internal">
        <lane id=":J3_4_0" index="0" speed="6.51" length="9.03" shape="93.78,-196.04 95.26,-198.02 95.76,-200.00 95.26,-201.98 93.78,-203.96"/>
    </edge>
    <edge id=":J3_5" function="internal">
        <lane id=":J3_5_0" index="0" speed="11.94" length="13.14" shape="93.78,-196.04 96.58,-198.47 99.44,-200.21 102.36,-201.25 105.33,-201.60"/>
    </edge>
    <edge id=":J4_0" function="internal">
        <lane id=":J4_0_0" index="0" speed="6.51" length="9.03" shape="3.96,-293.78 1.98,-295.26 0.00,-295.76 -1.98,-295.26 -3.96,-293.78"/>
    </edge>
    <edge id=":J4_1" function="internal">
        <lane id=":J4_1_0" index="0" speed="11.94" length="13.14" shape="3.96,-293.78 1.53,-296.58 -0.21,-299.44 -1.25,-302.36 -1.60,-305.33"/>
    </edge>
    <edge id=":J4_2" function="internal">
        <lane id=":J4_2_0" index="0" speed="10.77" length="10.63" shape="1.60,-305.33 1.89,-303.00 2.76,-300.67 4.20,-298.35 6.22,-296.04"/>
    </edge>
    <edge id=":J4_3" function="internal">
        <lane id=":J4_3_0" index="0" speed="11.94" length="13.14" shape="1.60,-305.33 1.25,-302.36 0.21,-299.44 -1.53,-296.58 -3.96,-293.78"/>
    </edge>
    <edge id=":J4_4" function="internal">
        <lane id=":J4_4_0" index="0" speed="10.77" length="10.63" shape="-6.22,-296.04 -4.20,-298.35 -2.76,-300.67 -1.89,-303.00 -1.60,-305.33"/>
    </edge>
    <edge id=":J4_5" function="internal">
        <lane id=":J4_5_0" index="0" speed="8.00" length="14.19" shape="-6.22,-296.04 -3.11,-298.37 0.00,-299.15 3.11,-298.37 6.22,-296.04"/>
    </edge>

    <edge id="-E0" from="J1" to="J0" priority="-1">
        <lane id="-E0_0" index="0" speed="13.89" length="194.67" shape="1.60,-94.67 1.60,100.00"/>
    </edge>
    <edge id="-E1" from="J2" to="J1" priority="-1">
        <lane id="-E1_0" index="0" speed="13.89" length="127.02" shape="-93.78,-196.04 -3.96,-106.22"/>
    </edge>
    <edge id="-E2" from="J3" to="J1" priority="-1">
        <lane id="-E2_0" index="0" speed="13.89" length="127.02" shape="96.04,-193.78 6.22,-103.96"/>
    </edge>
    <edge id="-E3" from="J4" to="J3" priority="-1">
        <lane id="-E3_0" index="0" speed="13.89" length="127.02" shape="6.22,-296.04 96.04,-206.22"/>
    </edge>
    <edge id="-E4" from="J2" to="J4" priority="-1">
        <lane id="-E4_0" index="0" speed="13.89" length="127.02" shape="-96.04,-206.22 -6.22,-296.04"/>
    </edge>
    <edge id="-E5" from="J5" to="J4" priority="-1">
        <lane id="-E5_0" index="0" speed="13.89" length="194.67" shape="1.60,-500.00 1.60,-305.33"/>
    </edge>
    <edge id="-E6" from="J6" to="J2" priority="-1">
        <lane id="-E6_0" index="0" speed="13.89" length="194.67" shape="-300.00,-201.60 -105.33,-201.60"/>
    </edge>
    <edge id="-E7" from="J7" to="J3" priority="-1">
        <lane id="-E7_0" index="0" speed="13.89" length="194.67" shape="300.00,-198.40 105.33,-198.40"/>
    </edge>
    <edge id="E0" from="J0" to="J1" priority="-1">
        <lane id="E0_0" index="0" speed="13.89" length="194.67" shape="-1.60,100.00 -1.60,-94.67"/>
    </edge>
    <edge id="E1" from="J1" to="J2" priority="-1">
        <lane id="E1_0" index="0" speed="13.89" length="127.02" shape="-6.22,-103.96 -96.04,-193.78"/>
    </edge>
    <edge id="E2" from="J1" to="J3" priority="-1">
        <lane id="E2_0" index="0" speed="13.89" length="127.02" shape="3.96,-106.22 93.78,-196.04"/>
    </edge>
    <edge id="E3" from="J3" to="J4" priority="-1">
        <lane id="E3_0" index="0" speed="13.89" length="127.02" shape="93.78,-203.96 3.96,-293.78"/>
    </edge>
    <edge id="E4" from="J4" to="J2" priority="-1">
        <lane id="E4_0" index="0" speed="13.89" length="127.02" shape="-3.96,-293.78 -93.78,-203.96"/>
    </edge>
    <edge id="E5" from="J4" to="J5" priority="-1">
        <lane id="E5_0" index="0" speed="13.89" length="194.67" shape="-1.60,-305.33 -1.60,-500.00"/>
    </edge>
    <edge id="E6" from="J2" to="J6" priority="-1">
        <lane id="E6_0" index="0" speed="13.89" length="194.67" shape="-105.33,-198.40 -300.00,-198.40"/>
    </edge>
    <edge id="E7" from="J3" to="J7" priority="-1">
        <lane id="E7_0" index="0" speed="13.89" length="194.67" shape="105.33,-201.60 300.00,-201.60"/>
    </edge>

    <tlLogic id="J4" type="static" programID="0" offset="0">
        <phase duration="27" state="GGGrrr"/>
        <phase duration="3"  state="yyyrrr"/>
        <phase duration="27" state="rrGGGr"/>
        <phase duration="3"  state="rryyyr"/>
        <phase duration="27" state="GrrrGG"/>
        <phase duration="3"  state="yrrryy"/>
    </tlLogic>

    <junction id="J0" type="dead_end" x="0.00" y="100.00" incLanes="-E0_0" intLanes="" shape="0.00,100.00 3.20,100.00 0.00,100.00"/>
    <junction id="J1" type="priority" x="0.00" y="-100.00" incLanes="E0_0 -E2_0 -E1_0" intLanes=":J1_0_0 :J1_1_0 :J1_2_0 :J1_6_0 :J1_4_0 :J1_5_0" shape="-3.20,-94.67 3.20,-94.67 3.66,-97.36 4.24,-98.71 5.05,-100.08 6.08,-101.45 7.35,-102.83 2.83,-107.35 0.94,-106.10 -0.00,-105.94 -0.94,-106.10 -1.89,-106.57 -2.83,-107.35 -7.35,-102.83 -5.05,-100.08 -4.24,-98.71 -3.66,-97.36 -3.32,-96.01">
        <request index="0" response="000000" foes="001000" cont="0"/>
        <request index="1" response="000000" foes="111000" cont="0"/>
        <request index="2" response="000000" foes="100000" cont="0"/>
        <request index="3" response="000011" foes="100011" cont="1"/>
        <request index="4" response="000010" foes="000010" cont="0"/>
        <request index="5" response="001110" foes="001110" cont="0"/>
    </junction>
    <junction id="J2" type="priority" x="-100.00" y="-200.00" incLanes="E1_0 E4_0 -E6_0" intLanes=":J2_0_0 :J2_6_0 :J2_2_0 :J2_3_0 :J2_4_0 :J2_5_0" shape="-97.17,-192.65 -92.65,-197.17 -93.90,-199.06 -94.06,-200.00 -93.90,-200.94 -93.43,-201.89 -92.65,-202.83 -97.17,-207.35 -99.92,-205.05 -101.29,-204.24 -102.64,-203.66 -103.99,-203.32 -105.33,-203.20 -105.33,-196.80 -102.64,-196.34 -101.29,-195.76 -99.92,-194.95 -98.55,-193.92">
        <request index="0" response="000000" foes="001000" cont="0"/>
        <request index="1" response="110000" foes="111000" cont="1"/>
        <request index="2" response="100000" foes="100000" cont="0"/>
        <request index="3" response="100011" foes="100011" cont="0"/>
        <request index="4" response="000000" foes="000010" cont="0"/>
        <request index="5" response="000000" foes="001110" cont="0"/>
    </junction>
    <junction id="J3" type="priority" x="100.00" y="-200.00" incLanes="-E7_0 -E3_0 E2_0" intLanes=":J3_0_0 :J3_1_0 :J3_2_0 :J3_6_0 :J3_4_0 :J3_5_0" shape="105.33,-196.80 105.33,-203.20 102.64,-203.66 101.29,-204.24 99.92,-205.05 98.55,-206.08 97.17,-207.35 92.65,-202.83 93.90,-200.94 94.06,-200.00 93.90,-199.06 93.43,-198.11 92.65,-197.17 97.17,-192.65 99.92,-194.95 101.29,-195.76 102.64,-196.34 103.99,-196.68">
        <request index="0" response="000000" foes="001000" cont="0"/>
        <request index="1" response="000000" foes="111000" cont="0"/>
        <request index="2" response="000000" foes="100000" cont="0"/>
        <request index="3" response="000011" foes="100011" cont="1"/>
        <request index="4" response="000010" foes="000010" cont="0"/>
        <request index="5" response="001110" foes="001110" cont="0"/>
    </junction>
    <junction id="J4" type="traffic_light" x="0.00" y="-300.00" incLanes="E3_0 -E5_0 -E4_0" intLanes=":J4_0_0 :J4_1_0 :J4_2_0 :J4_3_0 :J4_4_0 :J4_5_0" shape="2.83,-292.65 7.35,-297.17 5.05,-299.92 4.24,-301.29 3.66,-302.64 3.32,-303.99 3.20,-305.33 -3.20,-305.33 -3.66,-302.64 -4.24,-301.29 -5.05,-299.92 -6.08,-298.55 -7.35,-297.17 -2.83,-292.65 -0.94,-293.90 0.00,-294.06 0.94,-293.90 1.89,-293.43">
        <request index="0" response="000000" foes="001000" cont="0"/>
        <request index="1" response="000000" foes="111000" cont="0"/>
        <request index="2" response="000000" foes="100000" cont="0"/>
        <request index="3" response="000011" foes="100011" cont="0"/>
        <request index="4" response="000010" foes="000010" cont="0"/>
        <request index="5" response="001110" foes="001110" cont="0"/>
    </junction>
    <junction id="J5" type="dead_end" x="0.00" y="-500.00" incLanes="E5_0" intLanes="" shape="0.00,-500.00 -3.20,-500.00 0.00,-500.00"/>
    <junction id="J6" type="dead_end" x="-300.00" y="-200.00" incLanes="E6_0" intLanes="" shape="-300.00,-200.00 -300.00,-196.80 -300.00,-200.00"/>
    <junction id="J7" type="dead_end" x="300.00" y="-200.00" incLanes="E7_0" intLanes="" shape="300.00,-200.00 300.00,-203.20 300.00,-200.00"/>

    <junction id=":J1_6_0" type="internal" x="3.53" y="-101.94" incLanes=":J1_3_0 E0_0" intLanes=":J1_0_0 :J1_1_0 :J1_5_0"/>
    <junction id=":J2_6_0" type="internal" x="-98.06" y="-196.47" incLanes=":J2_1_0 -E6_0" intLanes=":J2_3_0 :J2_4_0 :J2_5_0"/>
    <junction id=":J3_6_0" type="internal" x="98.06" y="-203.53" incLanes=":J3_3_0 -E7_0" intLanes=":J3_0_0 :J3_1_0 :J3_5_0"/>

    <connection from="-E1" to="E2" fromLane="0" toLane="0" via=":J1_4_0" dir="r" state="m"/>
    <connection from="-E1" to="-E0" fromLane="0" toLane="0" via=":J1_5_0" dir="l" state="m"/>
    <connection from="-E2" to="-E0" fromLane="0" toLane="0" via=":J1_2_0" dir="r" state="M"/>
    <connection from="-E2" to="E1" fromLane="0" toLane="0" via=":J1_3_0" dir="l" state="m"/>
    <connection from="-E3" to="E7" fromLane="0" toLane="0" via=":J3_2_0" dir="r" state="M"/>
    <connection from="-E3" to="-E2" fromLane="0" toLane="0" via=":J3_3_0" dir="l" state="m"/>
    <connection from="-E4" to="E5" fromLane="0" toLane="0" via=":J4_4_0" tl="J4" linkIndex="4" dir="r" state="o"/>
    <connection from="-E4" to="-E3" fromLane="0" toLane="0" via=":J4_5_0" tl="J4" linkIndex="5" dir="l" state="o"/>
    <connection from="-E5" to="-E3" fromLane="0" toLane="0" via=":J4_2_0" tl="J4" linkIndex="2" dir="r" state="O"/>
    <connection from="-E5" to="E4" fromLane="0" toLane="0" via=":J4_3_0" tl="J4" linkIndex="3" dir="l" state="o"/>
    <connection from="-E6" to="-E4" fromLane="0" toLane="0" via=":J2_4_0" dir="r" state="M"/>
    <connection from="-E6" to="-E1" fromLane="0" toLane="0" via=":J2_5_0" dir="l" state="M"/>
    <connection from="-E7" to="-E2" fromLane="0" toLane="0" via=":J3_0_0" dir="r" state="M"/>
    <connection from="-E7" to="E3" fromLane="0" toLane="0" via=":J3_1_0" dir="l" state="M"/>
    <connection from="E0" to="E1" fromLane="0" toLane="0" via=":J1_0_0" dir="r" state="M"/>
    <connection from="E0" to="E2" fromLane="0" toLane="0" via=":J1_1_0" dir="l" state="M"/>
    <connection from="E1" to="E6" fromLane="0" toLane="0" via=":J2_0_0" dir="r" state="M"/>
    <connection from="E1" to="-E4" fromLane="0" toLane="0" via=":J2_1_0" dir="l" state="m"/>
    <connection from="E2" to="E3" fromLane="0" toLane="0" via=":J3_4_0" dir="r" state="m"/>
    <connection from="E2" to="E7" fromLane="0" toLane="0" via=":J3_5_0" dir="l" state="m"/>
    <connection from="E3" to="E4" fromLane="0" toLane="0" via=":J4_0_0" tl="J4" linkIndex="0" dir="r" state="O"/>
    <connection from="E3" to="E5" fromLane="0" toLane="0" via=":J4_1_0" tl="J4" linkIndex="1" dir="l" state="O"/>
    <connection from="E4" to="-E1" fromLane="0" toLane="0" via=":J2_2_0" dir="r" state="m"/>
    <connection from="E4" to="E6" fromLane="0" toLane="0" via=":J2_3_0" dir="l" state="m"/>

    <connection from=":J1_0" to="E1" fromLane="0" toLane="0" dir="r" state="M"/>
    <connection from=":J1_1" to="E2" fromLane="0" toLane="0" dir="l" state="M"/>
    <connection from=":J1_2" to="-E0" fromLane="0" toLane="0" dir="r" state="M"/>
    <connection from=":J1_3" to="E1" fromLane="0" toLane="0" via=":J1_6_0" dir="l" state="m"/>
    <connection from=":J1_6" to="E1" fromLane="0" toLane="0" dir="l" state="M"/>
    <connection from=":J1_4" to="E2" fromLane="0" toLane="0" dir="r" state="M"/>
    <connection from=":J1_5" to="-E0" fromLane="0" toLane="0" dir="l" state="M"/>
    <connection from=":J2_0" to="E6" fromLane="0" toLane="0" dir="r" state="M"/>
    <connection from=":J2_1" to="-E4" fromLane="0" toLane="0" via=":J2_6_0" dir="l" state="m"/>
    <connection from=":J2_6" to="-E4" fromLane="0" toLane="0" dir="l" state="M"/>
    <connection from=":J2_2" to="-E1" fromLane="0" toLane="0" dir="r" state="M"/>
    <connection from=":J2_3" to="E6" fromLane="0" toLane="0" dir="l" state="M"/>
    <connection from=":J2_4" to="-E4" fromLane="0" toLane="0" dir="r" state="M"/>
    <connection from=":J2_5" to="-E1" fromLane="0" toLane="0" dir="l" state="M"/>
    <connection from=":J3_0" to="-E2" fromLane="0" toLane="0" dir="r" state="M"/>
    <connection from=":J3_1" to="E3" fromLane="0" toLane="0" dir="l" state="M"/>
    <connection from=":J3_2" to="E7" fromLane="0" toLane="0" dir="r" state="M"/>
    <connection from=":J3_3" to="-E2" fromLane="0" toLane="0" via=":J3_6_0" dir="l" state="m"/>
    <connection from=":J3_6" to="-E2" fromLane="0" toLane="0" dir="l" state="M"/>
    <connection from=":J3_4" to="E3" fromLane="0" toLane="0" dir="r" state="M"/>
    <connection from=":J3_5" to="E7" fromLane="0" toLane="0" dir="l" state="M"/>
    <connection from=":J4_0" to="E4" fromLane="0" toLane="0" dir="r" state="M"/>
    <connection from=":J4_1" to="E5" fromLane="0" toLane="0" dir="l" state="M"/>
    <connection from=":J4_2" to="-E3" fromLane="0" toLane="0" dir="r" state="M"/>
    <connection from=":J4_3" to="E4" fromLane="0" toLane="0" dir="l" state="M"/>
    <connection from=":J4_4" to="E5" fromLane="0" toLane="0" dir="r" state="M"/>
    <connection from=":J4_5" to="-E3" fromLane="0" toLane="0" dir="l" state="M"/>

</net>
