<?xml version="1.0" encoding="UTF-8"?>

<!-- generated on 2024-09-29 20:48:44 by Eclipse SUMO netedit Version 1.19.0
<configuration xmlns:xsi="http://www.w3.org/2001/XMLSchema-instance" xsi:noNamespaceSchemaLocation="http://sumo.dlr.de/xsd/neteditConfiguration.xsd">

    <input>
        <sumo-net-file value="C:\Users\Lucas\Lucas\traffic_optimization\traffic_optimization\mynetworks\weight_test.net.xml"/>
    </input>

    <output>
        <output-file value="C:\Users\Lucas\Lucas\traffic_optimization\traffic_optimization\mynetworks\weight_test.net.xml"/>
    </output>

    <processing>
        <geometry.min-radius.fix.railways value="false"/>
        <geometry.max-grade.fix value="false"/>
        <offset.disable-normalization value="true"/>
        <lefthand value="0"/>
    </processing>

    <junctions>
        <no-turnarounds value="true"/>
        <junctions.corner-detail value="5"/>
        <junctions.limit-turn-speed value="5.50"/>
        <rectangular-lane-cut value="0"/>
    </junctions>

    <pedestrian>
        <walkingareas value="0"/>
    </pedestrian>

</configuration>
-->

<net version="1.16" junctionCornerDetail="5" limitTurnSpeed="5.50" xmlns:xsi="http://www.w3.org/2001/XMLSchema-instance" xsi:noNamespaceSchemaLocation="http://sumo.dlr.de/xsd/net_file.xsd">

    <location netOffset="0.00,0.00" convBoundary="-210.70,-107.70,100.37,141.23" origBoundary="-10000000000.00,-10000000000.00,10000000000.00,10000000000.00" projParameter="!"/>

    <edge id=":J6_0" function="internal">
        <lane id=":J6_0_0" index="0" speed="6.49" length="9.03" shape="-49.78,23.82 -50.16,21.37 -51.23,19.64 -52.99,18.62 -55.45,18.31"/>
    </edge>
    <edge id=":J6_1" function="internal">
        <lane id=":J6_1_0" index="0" speed="13.89" length="14.50" shape="-49.78,23.82 -49.86,9.32"/>
    </edge>
    <edge id=":J6_2" function="internal">
        <lane id=":J6_2_0" index="0" speed="8.04" length="4.11" shape="-49.78,23.82 -49.27,19.95 -49.16,19.77"/>
    </edge>
    <edge id=":J6_12" function="internal">
        <lane id=":J6_12_0" index="0" speed="8.04" length="10.16" shape="-49.16,19.77 -47.64,17.17 -44.89,15.46 -41.03,14.84"/>
    </edge>
    <edge id=":J6_3" function="internal">
        <lane id=":J6_3_0" index="0" speed="6.56" length="9.14" shape="-40.97,18.04 -43.45,18.44 -45.21,19.53 -46.25,21.31 -46.58,23.78"/>
    </edge>
    <edge id=":J6_4" function="internal">
        <lane id=":J6_4_0" index="0" speed="13.89" length="14.49" shape="-40.97,18.04 -55.45,18.31"/>
    </edge>
    <edge id=":J6_5" function="internal">
        <lane id=":J6_5_0" index="0" speed="7.97" length="4.09" shape="-40.97,18.04 -44.86,17.56 -45.00,17.47"/>
    </edge>
    <edge id=":J6_13" function="internal">
        <lane id=":J6_13_0" index="0" speed="7.97" length="10.18" shape="-45.00,17.47 -47.64,15.94 -49.30,13.20 -49.86,9.32"/>
    </edge>
    <edge id=":J6_6" function="internal">
        <lane id=":J6_6_0" index="0" speed="6.47" length="9.03" shape="-46.66,9.32 -46.31,11.77 -45.25,13.51 -43.49,14.53 -41.03,14.84"/>
    </edge>
    <edge id=":J6_7" function="internal">
        <lane id=":J6_7_0" index="0" speed="13.89" length="14.46" shape="-46.66,9.32 -46.58,23.78"/>
    </edge>
    <edge id=":J6_8" function="internal">
        <lane id=":J6_8_0" index="0" speed="8.08" length="4.05" shape="-46.66,9.32 -47.21,13.19 -47.28,13.31"/>
    </edge>
    <edge id=":J6_14" function="internal">
        <lane id=":J6_14_0" index="0" speed="8.08" length="10.23" shape="-47.28,13.31 -48.86,15.98 -51.60,17.69 -55.45,18.31"/>
    </edge>
    <edge id=":J6_9" function="internal">
        <lane id=":J6_9_0" index="0" speed="6.60" length="9.19" shape="-55.51,15.11 -53.04,14.71 -51.27,13.61 -50.21,11.81 -49.86,9.32"/>
    </edge>
    <edge id=":J6_10" function="internal">
        <lane id=":J6_10_0" index="0" speed="13.89" length="14.48" shape="-55.51,15.11 -41.03,14.84"/>
    </edge>
    <edge id=":J6_11" function="internal">
        <lane id=":J6_11_0" index="0" speed="7.99" length="4.07" shape="-55.51,15.11 -51.64,15.59 -51.49,15.68"/>
    </edge>
    <edge id=":J6_15" function="internal">
        <lane id=":J6_15_0" index="0" speed="7.99" length="10.15" shape="-51.49,15.68 -48.86,17.20 -47.17,19.93 -46.58,23.78"/>
    </edge>

    <edge id="-E2" from="J6" to="J5" priority="-1">
        <lane id="-E2_0" index="0" speed="13.89" length="117.44" shape="-46.58,23.78 -45.21,141.21"/>
    </edge>
    <edge id="-E3" from="J7" to="J6" priority="-1">
        <lane id="-E3_0" index="0" speed="13.89" length="117.02" shape="-46.66,-107.70 -46.66,9.32"/>
    </edge>
    <edge id="-E4" from="J6" to="J8" priority="-1">
        <lane id="-E4_0" index="0" speed="13.89" length="155.25" shape="-55.45,18.31 -210.67,21.09"/>
    </edge>
    <edge id="-E5" from="J9" to="J6" priority="-1">
        <lane id="-E5_0" index="0" speed="13.89" length="141.40" shape="100.40,15.28 -40.97,18.04"/>
    </edge>
    <edge id="E2" from="J5" to="J6" priority="-1">
        <lane id="E2_0" index="0" speed="13.89" length="117.44" shape="-48.41,141.25 -49.78,23.82"/>
    </edge>
    <edge id="E3" from="J6" to="J7" priority="-1">
        <lane id="E3_0" index="0" speed="13.89" length="117.02" shape="-49.86,9.32 -49.86,-107.70"/>
    </edge>
    <edge id="E4" from="J8" to="J6" priority="-1">
        <lane id="E4_0" index="0" speed="13.89" length="155.25" shape="-210.73,17.89 -55.51,15.11"/>
    </edge>
    <edge id="E5" from="J6" to="J9" priority="-1">
        <lane id="E5_0" index="0" speed="13.89" length="141.40" shape="-41.03,14.84 100.34,12.08"/>
    </edge>

    <tlLogic id="J6" type="static" programID="0" offset="0">
        <phase duration="42" state="rrrGGgrrrGGg"/>
        <phase duration="3"  state="rrryyyrrryyy"/>
        <phase duration="42" state="GGgrrrGGgrrr"/>
        <phase duration="3"  state="yyyrrryyyrrr"/>
    </tlLogic>

    <junction id="J5" type="dead_end" x="-46.81" y="141.23" incLanes="-E2_0" intLanes="" shape="-46.81,141.23 -43.61,141.19 -46.81,141.23"/>
    <junction id="J6" type="traffic_light" x="-48.26" y="16.58" incLanes="E2_0 -E5_0 -E3_0 E4_0" intLanes=":J6_0_0 :J6_1_0 :J6_12_0 :J6_3_0 :J6_4_0 :J6_13_0 :J6_6_0 :J6_7_0 :J6_14_0 :J6_9_0 :J6_10_0 :J6_15_0" shape="-51.38,23.84 -44.98,23.76 -44.55,21.51 -43.99,20.71 -43.20,20.13 -42.18,19.77 -40.94,19.64 -41.06,13.24 -43.28,12.84 -44.06,12.30 -44.62,11.53 -44.95,10.54 -45.06,9.32 -51.46,9.32 -51.91,11.61 -52.48,12.43 -53.27,13.01 -54.29,13.37 -55.54,13.51 -55.42,19.91 -53.19,20.31 -52.41,20.86 -51.85,21.62 -51.50,22.62">
        <request index="0"  response="000000010000" foes="000100010000" cont="0"/>
        <request index="1"  response="111000110000" foes="111100110000" cont="0"/>
        <request index="2"  response="110011110000" foes="110111110000" cont="1"/>
        <request index="3"  response="000000000000" foes="100010000000" cont="0"/>
        <request index="4"  response="000100000100" foes="100110000111" cont="0"/>
        <request index="5"  response="111100000100" foes="111110000110" cont="1"/>
        <request index="6"  response="010000000000" foes="010000000100" cont="0"/>
        <request index="7"  response="110000111000" foes="110000111100" cont="0"/>
        <request index="8"  response="110000110111" foes="110000110111" cont="1"/>
        <request index="9"  response="000000000000" foes="000000100010" cont="0"/>
        <request index="10" response="000100000100" foes="000111100110" cont="0"/>
        <request index="11" response="000100011100" foes="000110111110" cont="1"/>
    </junction>
    <junction id="J7" type="dead_end" x="-48.26" y="-107.70" incLanes="E3_0" intLanes="" shape="-48.26,-107.70 -51.46,-107.70 -48.26,-107.70"/>
    <junction id="J8" type="dead_end" x="-210.70" y="19.49" incLanes="-E4_0" intLanes="" shape="-210.70,19.49 -210.64,22.69 -210.70,19.49"/>
    <junction id="J9" type="dead_end" x="100.37" y="13.68" incLanes="E5_0" intLanes="" shape="100.37,13.68 100.31,10.48 100.37,13.68"/>

    <junction id=":J6_12_0" type="internal" x="-49.16" y="19.77" incLanes=":J6_2_0 -E3_0" intLanes=":J6_4_0 :J6_5_0 :J6_6_0 :J6_7_0 :J6_10_0 :J6_11_0"/>
    <junction id=":J6_13_0" type="internal" x="-45.00" y="17.47" incLanes=":J6_5_0 E4_0" intLanes=":J6_1_0 :J6_2_0 :J6_7_0 :J6_8_0 :J6_9_0 :J6_10_0"/>
    <junction id=":J6_14_0" type="internal" x="-47.28" y="13.31" incLanes=":J6_8_0 E2_0" intLanes=":J6_0_0 :J6_1_0 :J6_4_0 :J6_5_0 :J6_10_0 :J6_11_0"/>
    <junction id=":J6_15_0" type="internal" x="-51.49" y="15.68" incLanes=":J6_11_0 -E5_0" intLanes=":J6_1_0 :J6_2_0 :J6_3_0 :J6_4_0 :J6_7_0 :J6_8_0"/>

    <connection from="-E3" to="E5" fromLane="0" toLane="0" via=":J6_6_0" tl="J6" linkIndex="6" dir="r" state="o"/>
    <connection from="-E3" to="-E2" fromLane="0" toLane="0" via=":J6_7_0" tl="J6" linkIndex="7" dir="s" state="o"/>
    <connection from="-E3" to="-E4" fromLane="0" toLane="0" via=":J6_8_0" tl="J6" linkIndex="8" dir="l" state="o"/>
    <connection from="-E5" to="-E2" fromLane="0" toLane="0" via=":J6_3_0" tl="J6" linkIndex="3" dir="r" state="O"/>
    <connection from="-E5" to="-E4" fromLane="0" toLane="0" via=":J6_4_0" tl="J6" linkIndex="4" dir="s" state="O"/>
    <connection from="-E5" to="E3" fromLane="0" toLane="0" via=":J6_5_0" tl="J6" linkIndex="5" dir="l" state="o"/>
    <connection from="E2" to="-E4" fromLane="0" toLane="0" via=":J6_0_0" tl="J6" linkIndex="0" dir="r" state="o"/>
    <connection from="E2" to="E3" fromLane="0" toLane="0" via=":J6_1_0" tl="J6" linkIndex="1" dir="s" state="o"/>
    <connection from="E2" to="E5" fromLane="0" toLane="0" via=":J6_2_0" tl="J6" linkIndex="2" dir="l" state="o"/>
    <connection from="E4" to="E3" fromLane="0" toLane="0" via=":J6_9_0" tl="J6" linkIndex="9" dir="r" state="O"/>
    <connection from="E4" to="E5" fromLane="0" toLane="0" via=":J6_10_0" tl="J6" linkIndex="10" dir="s" state="O"/>
    <connection from="E4" to="-E2" fromLane="0" toLane="0" via=":J6_11_0" tl="J6" linkIndex="11" dir="l" state="o"/>

    <connection from=":J6_0" to="-E4" fromLane="0" toLane="0" dir="r" state="M"/>
    <connection from=":J6_1" to="E3" fromLane="0" toLane="0" dir="s" state="M"/>
    <connection from=":J6_2" to="E5" fromLane="0" toLane="0" via=":J6_12_0" dir="l" state="m"/>
    <connection from=":J6_12" to="E5" fromLane="0" toLane="0" dir="l" state="M"/>
    <connection from=":J6_3" to="-E2" fromLane="0" toLane="0" dir="r" state="M"/>
    <connection from=":J6_4" to="-E4" fromLane="0" toLane="0" dir="s" state="M"/>
    <connection from=":J6_5" to="E3" fromLane="0" toLane="0" via=":J6_13_0" dir="l" state="m"/>
    <connection from=":J6_13" to="E3" fromLane="0" toLane="0" dir="l" state="M"/>
    <connection from=":J6_6" to="E5" fromLane="0" toLane="0" dir="r" state="M"/>
    <connection from=":J6_7" to="-E2" fromLane="0" toLane="0" dir="s" state="M"/>
    <connection from=":J6_8" to="-E4" fromLane="0" toLane="0" via=":J6_14_0" dir="l" state="m"/>
    <connection from=":J6_14" to="-E4" fromLane="0" toLane="0" dir="l" state="M"/>
    <connection from=":J6_9" to="E3" fromLane="0" toLane="0" dir="r" state="M"/>
    <connection from=":J6_10" to="E5" fromLane="0" toLane="0" dir="s" state="M"/>
    <connection from=":J6_11" to="-E2" fromLane="0" toLane="0" via=":J6_15_0" dir="l" state="m"/>
    <connection from=":J6_15" to="-E2" fromLane="0" toLane="0" dir="l" state="M"/>

</net>
