<configuration>
    <input>
        <net-file value="C:\Users\Lucas\Lucas\traffic_optimization\traffic_optimization/output\school.timing.net.xml.temp"/>
        <route-files value="C:\Users\Lucas\Lucas\traffic_optimization\traffic_optimization/output\random_trips_3920.xml"/>
    </input>
    <time>
        <begin value="0"/>
        <end value="2000"/>
    </time>
</configuration>