<?xml version="1.0" encoding="UTF-8"?>

<!-- generated on 2025-03-08 19:34:00 by Eclipse SUMO netedit Version 1.19.0
<configuration xmlns:xsi="http://www.w3.org/2001/XMLSchema-instance" xsi:noNamespaceSchemaLocation="http://sumo.dlr.de/xsd/neteditConfiguration.xsd">

    <input>
        <sumo-net-file value="C:\Users\Lucas\Lucas\traffic_optimization\traffic_optimization\NETWORKS\simple_network.net.xml"/>
    </input>

    <output>
        <output-file value="C:\Users\Lucas\Lucas\traffic_optimization\traffic_optimization\NETWORKS\simple_network.net.xml"/>
    </output>

    <processing>
        <geometry.min-radius.fix.railways value="false"/>
        <geometry.max-grade.fix value="false"/>
        <offset.disable-normalization value="true"/>
        <lefthand value="0"/>
    </processing>

    <junctions>
        <no-turnarounds value="true"/>
        <junctions.corner-detail value="5"/>
        <junctions.limit-turn-speed value="5.50"/>
        <rectangular-lane-cut value="0"/>
    </junctions>

    <pedestrian>
        <walkingareas value="0"/>
    </pedestrian>

</configuration>
-->

<net version="1.16" junctionCornerDetail="5" limitTurnSpeed="5.50" xmlns:xsi="http://www.w3.org/2001/XMLSchema-instance" xsi:noNamespaceSchemaLocation="http://sumo.dlr.de/xsd/net_file.xsd">

    <location netOffset="0.00,0.00" convBoundary="100.00,-200.00,500.00,200.00" origBoundary="-10000000000.00,-10000000000.00,10000000000.00,10000000000.00" projParameter="!"/>

    <edge id=":main_0" function="internal">
        <lane id=":main_0_0" index="0" speed="6.51" length="9.03" shape="298.40,7.20 298.05,4.75 297.00,3.00 295.25,1.95 292.80,1.60"/>
    </edge>
    <edge id=":main_1" function="internal">
        <lane id=":main_1_0" index="0" speed="13.89" length="14.40" shape="298.40,7.20 298.40,-7.20"/>
    </edge>
    <edge id=":main_2" function="internal">
        <lane id=":main_2_0" index="0" speed="8.00" length="4.07" shape="298.40,7.20 298.95,3.35 299.04,3.20"/>
    </edge>
    <edge id=":main_12" function="internal">
        <lane id=":main_12_0" index="0" speed="8.00" length="10.13" shape="299.04,3.20 300.60,0.60 303.35,-1.05 307.20,-1.60"/>
    </edge>
    <edge id=":main_3" function="internal">
        <lane id=":main_3_0" index="0" speed="6.51" length="9.03" shape="307.20,1.60 304.75,1.95 303.00,3.00 301.95,4.75 301.60,7.20"/>
    </edge>
    <edge id=":main_4" function="internal">
        <lane id=":main_4_0" index="0" speed="13.89" length="14.40" shape="307.20,1.60 292.80,1.60"/>
    </edge>
    <edge id=":main_5" function="internal">
        <lane id=":main_5_0" index="0" speed="8.00" length="4.07" shape="307.20,1.60 303.35,1.05 303.20,0.96"/>
    </edge>
    <edge id=":main_13" function="internal">
        <lane id=":main_13_0" index="0" speed="8.00" length="10.13" shape="303.20,0.96 300.60,-0.60 298.95,-3.35 298.40,-7.20"/>
    </edge>
    <edge id=":main_6" function="internal">
        <lane id=":main_6_0" index="0" speed="6.51" length="9.03" shape="301.60,-7.20 301.95,-4.75 303.00,-3.00 304.75,-1.95 307.20,-1.60"/>
    </edge>
    <edge id=":main_7" function="internal">
        <lane id=":main_7_0" index="0" speed="13.89" length="14.40" shape="301.60,-7.20 301.60,7.20"/>
    </edge>
    <edge id=":main_8" function="internal">
        <lane id=":main_8_0" index="0" speed="8.00" length="4.07" shape="301.60,-7.20 301.05,-3.35 300.96,-3.20"/>
    </edge>
    <edge id=":main_14" function="internal">
        <lane id=":main_14_0" index="0" speed="8.00" length="10.13" shape="300.96,-3.20 299.40,-0.60 296.65,1.05 292.80,1.60"/>
    </edge>
    <edge id=":main_9" function="internal">
        <lane id=":main_9_0" index="0" speed="6.51" length="9.03" shape="292.80,-1.60 295.25,-1.95 297.00,-3.00 298.05,-4.75 298.40,-7.20"/>
    </edge>
    <edge id=":main_10" function="internal">
        <lane id=":main_10_0" index="0" speed="13.89" length="14.40" shape="292.80,-1.60 307.20,-1.60"/>
    </edge>
    <edge id=":main_11" function="internal">
        <lane id=":main_11_0" index="0" speed="8.00" length="4.07" shape="292.80,-1.60 296.65,-1.05 296.80,-0.96"/>
    </edge>
    <edge id=":main_15" function="internal">
        <lane id=":main_15_0" index="0" speed="8.00" length="10.13" shape="296.80,-0.96 299.40,0.60 301.05,3.35 301.60,7.20"/>
    </edge>

    <edge id="-E0" from="west" to="main" priority="-1">
        <lane id="-E0_0" index="0" speed="13.89" length="192.80" shape="100.00,-1.60 292.80,-1.60"/>
    </edge>
    <edge id="-E1" from="north" to="main" priority="-1">
        <lane id="-E1_0" index="0" speed="13.89" length="192.80" shape="298.40,200.00 298.40,7.20"/>
    </edge>
    <edge id="-E2" from="east" to="main" priority="-1">
        <lane id="-E2_0" index="0" speed="13.89" length="192.80" shape="500.00,1.60 307.20,1.60"/>
    </edge>
    <edge id="-E3" from="south" to="main" priority="-1">
        <lane id="-E3_0" index="0" speed="13.89" length="192.80" shape="301.60,-200.00 301.60,-7.20"/>
    </edge>
    <edge id="E0" from="main" to="west" priority="-1">
        <lane id="E0_0" index="0" speed="13.89" length="192.80" shape="292.80,1.60 100.00,1.60"/>
    </edge>
    <edge id="E1" from="main" to="north" priority="-1">
        <lane id="E1_0" index="0" speed="13.89" length="192.80" shape="301.60,7.20 301.60,200.00"/>
    </edge>
    <edge id="E2" from="main" to="east" priority="-1">
        <lane id="E2_0" index="0" speed="13.89" length="192.80" shape="307.20,-1.60 500.00,-1.60"/>
    </edge>
    <edge id="E3" from="main" to="south" priority="-1">
        <lane id="E3_0" index="0" speed="13.89" length="192.80" shape="298.40,-7.20 298.40,-200.00"/>
    </edge>

    <tlLogic id="main" type="static" programID="0" offset="0">
        <phase duration="72" state="GGgrrrGGgrrr"/>
        <phase duration="3"  state="yyyrrryyyrrr"/>
        <phase duration="72" state="rrrGGgrrrGGg"/>
        <phase duration="3"  state="rrryyyrrryyy"/>
    </tlLogic>

    <junction id="east" type="dead_end" x="500.00" y="0.00" incLanes="E2_0" intLanes="" shape="500.00,0.00 500.00,-3.20 500.00,0.00"/>
    <junction id="main" type="traffic_light" x="300.00" y="0.00" incLanes="-E1_0 -E2_0 -E3_0 -E0_0" intLanes=":main_0_0 :main_1_0 :main_12_0 :main_3_0 :main_4_0 :main_13_0 :main_6_0 :main_7_0 :main_14_0 :main_9_0 :main_10_0 :main_15_0" shape="296.80,7.20 303.20,7.20 303.64,4.98 304.20,4.20 304.98,3.64 305.98,3.31 307.20,3.20 307.20,-3.20 304.98,-3.64 304.20,-4.20 303.64,-4.98 303.31,-5.98 303.20,-7.20 296.80,-7.20 296.36,-4.98 295.80,-4.20 295.02,-3.64 294.02,-3.31 292.80,-3.20 292.80,3.20 295.02,3.64 295.80,4.20 296.36,4.98 296.69,5.98">
        <request index="0"  response="000000000000" foes="000100010000" cont="0"/>
        <request index="1"  response="100000100000" foes="111100110000" cont="0"/>
        <request index="2"  response="100111100000" foes="110111110000" cont="1"/>
        <request index="3"  response="000010000000" foes="100010000000" cont="0"/>
        <request index="4"  response="000110000111" foes="100110000111" cont="0"/>
        <request index="5"  response="011110000110" foes="111110000110" cont="1"/>
        <request index="6"  response="000000000000" foes="010000000100" cont="0"/>
        <request index="7"  response="100000100000" foes="110000111100" cont="0"/>
        <request index="8"  response="100000100011" foes="110000110111" cont="1"/>
        <request index="9"  response="000000000010" foes="000000100010" cont="0"/>
        <request index="10" response="000111000110" foes="000111100110" cont="0"/>
        <request index="11" response="000110111110" foes="000110111110" cont="1"/>
    </junction>
    <junction id="north" type="dead_end" x="300.00" y="200.00" incLanes="E1_0" intLanes="" shape="300.00,200.00 303.20,200.00 300.00,200.00"/>
    <junction id="south" type="dead_end" x="300.00" y="-200.00" incLanes="E3_0" intLanes="" shape="300.00,-200.00 296.80,-200.00 300.00,-200.00"/>
    <junction id="west" type="dead_end" x="100.00" y="0.00" incLanes="E0_0" intLanes="" shape="100.00,0.00 100.00,3.20 100.00,0.00"/>

    <junction id=":main_12_0" type="internal" x="299.04" y="3.20" incLanes=":main_2_0 -E3_0" intLanes=":main_4_0 :main_5_0 :main_6_0 :main_7_0 :main_10_0 :main_11_0"/>
    <junction id=":main_13_0" type="internal" x="303.20" y="0.96" incLanes=":main_5_0 -E0_0" intLanes=":main_1_0 :main_2_0 :main_7_0 :main_8_0 :main_9_0 :main_10_0"/>
    <junction id=":main_14_0" type="internal" x="300.96" y="-3.20" incLanes=":main_8_0 -E1_0" intLanes=":main_0_0 :main_1_0 :main_4_0 :main_5_0 :main_10_0 :main_11_0"/>
    <junction id=":main_15_0" type="internal" x="296.80" y="-0.96" incLanes=":main_11_0 -E2_0" intLanes=":main_1_0 :main_2_0 :main_3_0 :main_4_0 :main_7_0 :main_8_0"/>

    <connection from="-E0" to="E3" fromLane="0" toLane="0" via=":main_9_0" tl="main" linkIndex="9" dir="r" state="o"/>
    <connection from="-E0" to="E2" fromLane="0" toLane="0" via=":main_10_0" tl="main" linkIndex="10" dir="s" state="o"/>
    <connection from="-E0" to="E1" fromLane="0" toLane="0" via=":main_11_0" tl="main" linkIndex="11" dir="l" state="o"/>
    <connection from="-E1" to="E0" fromLane="0" toLane="0" via=":main_0_0" tl="main" linkIndex="0" dir="r" state="O"/>
    <connection from="-E1" to="E3" fromLane="0" toLane="0" via=":main_1_0" tl="main" linkIndex="1" dir="s" state="O"/>
    <connection from="-E1" to="E2" fromLane="0" toLane="0" via=":main_2_0" tl="main" linkIndex="2" dir="l" state="o"/>
    <connection from="-E2" to="E1" fromLane="0" toLane="0" via=":main_3_0" tl="main" linkIndex="3" dir="r" state="o"/>
    <connection from="-E2" to="E0" fromLane="0" toLane="0" via=":main_4_0" tl="main" linkIndex="4" dir="s" state="o"/>
    <connection from="-E2" to="E3" fromLane="0" toLane="0" via=":main_5_0" tl="main" linkIndex="5" dir="l" state="o"/>
    <connection from="-E3" to="E2" fromLane="0" toLane="0" via=":main_6_0" tl="main" linkIndex="6" dir="r" state="O"/>
    <connection from="-E3" to="E1" fromLane="0" toLane="0" via=":main_7_0" tl="main" linkIndex="7" dir="s" state="O"/>
    <connection from="-E3" to="E0" fromLane="0" toLane="0" via=":main_8_0" tl="main" linkIndex="8" dir="l" state="o"/>

    <connection from=":main_0" to="E0" fromLane="0" toLane="0" dir="r" state="M"/>
    <connection from=":main_1" to="E3" fromLane="0" toLane="0" dir="s" state="M"/>
    <connection from=":main_2" to="E2" fromLane="0" toLane="0" via=":main_12_0" dir="l" state="m"/>
    <connection from=":main_12" to="E2" fromLane="0" toLane="0" dir="l" state="M"/>
    <connection from=":main_3" to="E1" fromLane="0" toLane="0" dir="r" state="M"/>
    <connection from=":main_4" to="E0" fromLane="0" toLane="0" dir="s" state="M"/>
    <connection from=":main_5" to="E3" fromLane="0" toLane="0" via=":main_13_0" dir="l" state="m"/>
    <connection from=":main_13" to="E3" fromLane="0" toLane="0" dir="l" state="M"/>
    <connection from=":main_6" to="E2" fromLane="0" toLane="0" dir="r" state="M"/>
    <connection from=":main_7" to="E1" fromLane="0" toLane="0" dir="s" state="M"/>
    <connection from=":main_8" to="E0" fromLane="0" toLane="0" via=":main_14_0" dir="l" state="m"/>
    <connection from=":main_14" to="E0" fromLane="0" toLane="0" dir="l" state="M"/>
    <connection from=":main_9" to="E3" fromLane="0" toLane="0" dir="r" state="M"/>
    <connection from=":main_10" to="E2" fromLane="0" toLane="0" dir="s" state="M"/>
    <connection from=":main_11" to="E1" fromLane="0" toLane="0" via=":main_15_0" dir="l" state="m"/>
    <connection from=":main_15" to="E1" fromLane="0" toLane="0" dir="l" state="M"/>

</net>
