<?xml version="1.0" encoding="UTF-8"?>

<!-- generated on 2024-10-19 14:07:26 by Eclipse SUMO netedit Version 1.19.0
<configuration xmlns:xsi="http://www.w3.org/2001/XMLSchema-instance" xsi:noNamespaceSchemaLocation="http://sumo.dlr.de/xsd/neteditConfiguration.xsd">

    <input>
        <sumocfg-file value="C:\Users\647va\OneDrive\Desktop\Tim\traffic_optimization\mynetworks\simple_network.sumocfg"/>
        <sumo-net-file value="C:\Users\647va\OneDrive\Desktop\Tim\traffic_optimization\mynetworks\simple_network.net.xml"/>
    </input>

    <output>
        <output-file value="C:\Users\647va\OneDrive\Desktop\Tim\traffic_optimization\mynetworks\simple_network.net.xml"/>
    </output>

    <processing>
        <offset.disable-normalization value="true"/>
    </processing>

    <junctions>
        <no-turnarounds value="true"/>
    </junctions>

    <netedit>
        <new-network value="false"/>
    </netedit>

</configuration>
-->

<net version="1.16" junctionCornerDetail="5" limitTurnSpeed="5.50" xmlns:xsi="http://www.w3.org/2001/XMLSchema-instance" xsi:noNamespaceSchemaLocation="http://sumo.dlr.de/xsd/net_file.xsd">

    <location netOffset="0.00,0.00" convBoundary="100.00,-200.00,500.00,200.00" origBoundary="10000000000.00,10000000000.00,-10000000000.00,-10000000000.00" projParameter="!"/>

    <edge id=":J0_0" function="internal">
        <lane id=":J0_0_0" index="0" speed="6.51" length="9.03" shape="298.40,7.20 298.05,4.75 297.00,3.00 295.25,1.95 292.80,1.60"/>
    </edge>
    <edge id=":J0_1" function="internal">
        <lane id=":J0_1_0" index="0" speed="13.89" length="14.40" shape="298.40,7.20 298.40,-7.20"/>
    </edge>
    <edge id=":J0_2" function="internal">
        <lane id=":J0_2_0" index="0" speed="8.00" length="4.07" shape="298.40,7.20 298.95,3.35 299.04,3.20"/>
    </edge>
    <edge id=":J0_12" function="internal">
        <lane id=":J0_12_0" index="0" speed="8.00" length="10.13" shape="299.04,3.20 300.60,0.60 303.35,-1.05 307.20,-1.60"/>
    </edge>
    <edge id=":J0_3" function="internal">
        <lane id=":J0_3_0" index="0" speed="6.51" length="9.03" shape="307.20,1.60 304.75,1.95 303.00,3.00 301.95,4.75 301.60,7.20"/>
    </edge>
    <edge id=":J0_4" function="internal">
        <lane id=":J0_4_0" index="0" speed="13.89" length="14.40" shape="307.20,1.60 292.80,1.60"/>
    </edge>
    <edge id=":J0_5" function="internal">
        <lane id=":J0_5_0" index="0" speed="8.00" length="4.07" shape="307.20,1.60 303.35,1.05 303.20,0.96"/>
    </edge>
    <edge id=":J0_13" function="internal">
        <lane id=":J0_13_0" index="0" speed="8.00" length="10.13" shape="303.20,0.96 300.60,-0.60 298.95,-3.35 298.40,-7.20"/>
    </edge>
    <edge id=":J0_6" function="internal">
        <lane id=":J0_6_0" index="0" speed="6.51" length="9.03" shape="301.60,-7.20 301.95,-4.75 303.00,-3.00 304.75,-1.95 307.20,-1.60"/>
    </edge>
    <edge id=":J0_7" function="internal">
        <lane id=":J0_7_0" index="0" speed="13.89" length="14.40" shape="301.60,-7.20 301.60,7.20"/>
    </edge>
    <edge id=":J0_8" function="internal">
        <lane id=":J0_8_0" index="0" speed="8.00" length="4.07" shape="301.60,-7.20 301.05,-3.35 300.96,-3.20"/>
    </edge>
    <edge id=":J0_14" function="internal">
        <lane id=":J0_14_0" index="0" speed="8.00" length="10.13" shape="300.96,-3.20 299.40,-0.60 296.65,1.05 292.80,1.60"/>
    </edge>
    <edge id=":J0_9" function="internal">
        <lane id=":J0_9_0" index="0" speed="6.51" length="9.03" shape="292.80,-1.60 295.25,-1.95 297.00,-3.00 298.05,-4.75 298.40,-7.20"/>
    </edge>
    <edge id=":J0_10" function="internal">
        <lane id=":J0_10_0" index="0" speed="13.89" length="14.40" shape="292.80,-1.60 307.20,-1.60"/>
    </edge>
    <edge id=":J0_11" function="internal">
        <lane id=":J0_11_0" index="0" speed="8.00" length="4.07" shape="292.80,-1.60 296.65,-1.05 296.80,-0.96"/>
    </edge>
    <edge id=":J0_15" function="internal">
        <lane id=":J0_15_0" index="0" speed="8.00" length="10.13" shape="296.80,-0.96 299.40,0.60 301.05,3.35 301.60,7.20"/>
    </edge>

    <edge id="-E0" from="J1" to="J0" priority="-1">
        <lane id="-E0_0" index="0" speed="13.89" length="192.80" shape="100.00,-1.60 292.80,-1.60"/>
    </edge>
    <edge id="-E1" from="J2" to="J0" priority="-1">
        <lane id="-E1_0" index="0" speed="13.89" length="192.80" shape="298.40,200.00 298.40,7.20"/>
    </edge>
    <edge id="-E2" from="J3" to="J0" priority="-1">
        <lane id="-E2_0" index="0" speed="13.89" length="192.80" shape="500.00,1.60 307.20,1.60"/>
    </edge>
    <edge id="-E3" from="J5" to="J0" priority="-1">
        <lane id="-E3_0" index="0" speed="13.89" length="192.80" shape="301.60,-200.00 301.60,-7.20"/>
    </edge>
    <edge id="E0" from="J0" to="J1" priority="-1">
        <lane id="E0_0" index="0" speed="13.89" length="192.80" shape="292.80,1.60 100.00,1.60"/>
    </edge>
    <edge id="E1" from="J0" to="J2" priority="-1">
        <lane id="E1_0" index="0" speed="13.89" length="192.80" shape="301.60,7.20 301.60,200.00"/>
    </edge>
    <edge id="E2" from="J0" to="J3" priority="-1">
        <lane id="E2_0" index="0" speed="13.89" length="192.80" shape="307.20,-1.60 500.00,-1.60"/>
    </edge>
    <edge id="E3" from="J0" to="J5" priority="-1">
        <lane id="E3_0" index="0" speed="13.89" length="192.80" shape="298.40,-7.20 298.40,-200.00"/>
    </edge>

    <tlLogic id="J0" type="static" programID="0" offset="0">
        <phase duration="72" state="GGgrrrGGgrrr"/>
        <phase duration="3"  state="yyyrrryyyrrr"/>
        <phase duration="72" state="rrrGGgrrrGGg"/>
        <phase duration="3"  state="rrryyyrrryyy"/>
    </tlLogic>

    <junction id="J0" type="traffic_light" x="300.00" y="0.00" incLanes="-E1_0 -E2_0 -E3_0 -E0_0" intLanes=":J0_0_0 :J0_1_0 :J0_12_0 :J0_3_0 :J0_4_0 :J0_13_0 :J0_6_0 :J0_7_0 :J0_14_0 :J0_9_0 :J0_10_0 :J0_15_0" shape="296.80,7.20 303.20,7.20 303.64,4.98 304.20,4.20 304.98,3.64 305.98,3.31 307.20,3.20 307.20,-3.20 304.98,-3.64 304.20,-4.20 303.64,-4.98 303.31,-5.98 303.20,-7.20 296.80,-7.20 296.36,-4.98 295.80,-4.20 295.02,-3.64 294.02,-3.31 292.80,-3.20 292.80,3.20 295.02,3.64 295.80,4.20 296.36,4.98 296.69,5.98">
        <request index="0"  response="000000000000" foes="000100010000" cont="0"/>
        <request index="1"  response="100000100000" foes="111100110000" cont="0"/>
        <request index="2"  response="100111100000" foes="110111110000" cont="1"/>
        <request index="3"  response="000010000000" foes="100010000000" cont="0"/>
        <request index="4"  response="000110000111" foes="100110000111" cont="0"/>
        <request index="5"  response="011110000110" foes="111110000110" cont="1"/>
        <request index="6"  response="000000000000" foes="010000000100" cont="0"/>
        <request index="7"  response="100000100000" foes="110000111100" cont="0"/>
        <request index="8"  response="100000100011" foes="110000110111" cont="1"/>
        <request index="9"  response="000000000010" foes="000000100010" cont="0"/>
        <request index="10" response="000111000110" foes="000111100110" cont="0"/>
        <request index="11" response="000110111110" foes="000110111110" cont="1"/>
    </junction>
    <junction id="J1" type="dead_end" x="100.00" y="0.00" incLanes="E0_0" intLanes="" shape="100.00,0.00 100.00,3.20 100.00,0.00"/>
    <junction id="J2" type="dead_end" x="300.00" y="200.00" incLanes="E1_0" intLanes="" shape="300.00,200.00 303.20,200.00 300.00,200.00"/>
    <junction id="J3" type="dead_end" x="500.00" y="0.00" incLanes="E2_0" intLanes="" shape="500.00,0.00 500.00,-3.20 500.00,0.00"/>
    <junction id="J5" type="dead_end" x="300.00" y="-200.00" incLanes="E3_0" intLanes="" shape="300.00,-200.00 296.80,-200.00 300.00,-200.00"/>

    <junction id=":J0_12_0" type="internal" x="299.04" y="3.20" incLanes=":J0_2_0 -E3_0" intLanes=":J0_4_0 :J0_5_0 :J0_6_0 :J0_7_0 :J0_10_0 :J0_11_0"/>
    <junction id=":J0_13_0" type="internal" x="303.20" y="0.96" incLanes=":J0_5_0 -E0_0" intLanes=":J0_1_0 :J0_2_0 :J0_7_0 :J0_8_0 :J0_9_0 :J0_10_0"/>
    <junction id=":J0_14_0" type="internal" x="300.96" y="-3.20" incLanes=":J0_8_0 -E1_0" intLanes=":J0_0_0 :J0_1_0 :J0_4_0 :J0_5_0 :J0_10_0 :J0_11_0"/>
    <junction id=":J0_15_0" type="internal" x="296.80" y="-0.96" incLanes=":J0_11_0 -E2_0" intLanes=":J0_1_0 :J0_2_0 :J0_3_0 :J0_4_0 :J0_7_0 :J0_8_0"/>

    <connection from="-E0" to="E3" fromLane="0" toLane="0" via=":J0_9_0" tl="J0" linkIndex="9" dir="r" state="o"/>
    <connection from="-E0" to="E2" fromLane="0" toLane="0" via=":J0_10_0" tl="J0" linkIndex="10" dir="s" state="o"/>
    <connection from="-E0" to="E1" fromLane="0" toLane="0" via=":J0_11_0" tl="J0" linkIndex="11" dir="l" state="o"/>
    <connection from="-E1" to="E0" fromLane="0" toLane="0" via=":J0_0_0" tl="J0" linkIndex="0" dir="r" state="O"/>
    <connection from="-E1" to="E3" fromLane="0" toLane="0" via=":J0_1_0" tl="J0" linkIndex="1" dir="s" state="O"/>
    <connection from="-E1" to="E2" fromLane="0" toLane="0" via=":J0_2_0" tl="J0" linkIndex="2" dir="l" state="o"/>
    <connection from="-E2" to="E1" fromLane="0" toLane="0" via=":J0_3_0" tl="J0" linkIndex="3" dir="r" state="o"/>
    <connection from="-E2" to="E0" fromLane="0" toLane="0" via=":J0_4_0" tl="J0" linkIndex="4" dir="s" state="o"/>
    <connection from="-E2" to="E3" fromLane="0" toLane="0" via=":J0_5_0" tl="J0" linkIndex="5" dir="l" state="o"/>
    <connection from="-E3" to="E2" fromLane="0" toLane="0" via=":J0_6_0" tl="J0" linkIndex="6" dir="r" state="O"/>
    <connection from="-E3" to="E1" fromLane="0" toLane="0" via=":J0_7_0" tl="J0" linkIndex="7" dir="s" state="O"/>
    <connection from="-E3" to="E0" fromLane="0" toLane="0" via=":J0_8_0" tl="J0" linkIndex="8" dir="l" state="o"/>

    <connection from=":J0_0" to="E0" fromLane="0" toLane="0" dir="r" state="M"/>
    <connection from=":J0_1" to="E3" fromLane="0" toLane="0" dir="s" state="M"/>
    <connection from=":J0_2" to="E2" fromLane="0" toLane="0" via=":J0_12_0" dir="l" state="m"/>
    <connection from=":J0_12" to="E2" fromLane="0" toLane="0" dir="l" state="M"/>
    <connection from=":J0_3" to="E1" fromLane="0" toLane="0" dir="r" state="M"/>
    <connection from=":J0_4" to="E0" fromLane="0" toLane="0" dir="s" state="M"/>
    <connection from=":J0_5" to="E3" fromLane="0" toLane="0" via=":J0_13_0" dir="l" state="m"/>
    <connection from=":J0_13" to="E3" fromLane="0" toLane="0" dir="l" state="M"/>
    <connection from=":J0_6" to="E2" fromLane="0" toLane="0" dir="r" state="M"/>
    <connection from=":J0_7" to="E1" fromLane="0" toLane="0" dir="s" state="M"/>
    <connection from=":J0_8" to="E0" fromLane="0" toLane="0" via=":J0_14_0" dir="l" state="m"/>
    <connection from=":J0_14" to="E0" fromLane="0" toLane="0" dir="l" state="M"/>
    <connection from=":J0_9" to="E3" fromLane="0" toLane="0" dir="r" state="M"/>
    <connection from=":J0_10" to="E2" fromLane="0" toLane="0" dir="s" state="M"/>
    <connection from=":J0_11" to="E1" fromLane="0" toLane="0" via=":J0_15_0" dir="l" state="m"/>
    <connection from=":J0_15" to="E1" fromLane="0" toLane="0" dir="l" state="M"/>

</net>