<configuration>
    <input>
        <net-file value="simple_network.timing.net.xml.temp"/>
        <route-files value="random_trips_1355.xml"/>
    </input>
    <time>
        <begin value="0"/>
        <end value="2000"/>
        <step-length value="1"/>
    </time>
</configuration>