<?xml version="1.0" encoding="UTF-8"?>

<!-- generated on 2023-07-16 19:03:31 by Eclipse SUMO netconvert Version 1.18.0
<configuration xmlns:xsi="http://www.w3.org/2001/XMLSchema-instance" xsi:noNamespaceSchemaLocation="http://sumo.dlr.de/xsd/netconvertConfiguration.xsd">

    <input>
        <osm-files value="keeleandmajormakenzie.osm"/>
    </input>

    <output>
        <output-file value="test.net.xml"/>
    </output>

    <projection>
        <proj.utm value="true"/>
    </projection>

</configuration>
-->

<net version="1.16" junctionCornerDetail="5" limitTurnSpeed="5.50" xmlns:xsi="http://www.w3.org/2001/XMLSchema-instance" xsi:noNamespaceSchemaLocation="http://sumo.dlr.de/xsd/net_file.xsd">

    <location netOffset="-618911.56,-4856337.00" convBoundary="0.00,0.00,947.48,691.02" origBoundary="-79.520480,43.850425,-79.508622,43.856663" projParameter="+proj=utm +zone=17 +ellps=WGS84 +datum=WGS84 +units=m +no_defs"/>

    <type id="highway.footway" priority="1" numLanes="1" speed="2.78" allow="pedestrian" oneway="1" width="2.00"/>
    <type id="highway.path" priority="1" numLanes="1" speed="5.56" allow="pedestrian bicycle" oneway="0" width="2.00"/>
    <type id="highway.residential" priority="3" numLanes="1" speed="13.89" disallow="tram rail_urban rail rail_electric rail_fast ship" oneway="0"/>
    <type id="highway.secondary" priority="11" numLanes="1" speed="27.78" disallow="tram rail_urban rail rail_electric rail_fast ship" oneway="0"/>
    <type id="highway.secondary_link" priority="6" numLanes="1" speed="22.22" disallow="tram rail_urban rail rail_electric rail_fast ship" oneway="0"/>
    <type id="highway.service" priority="1" numLanes="1" speed="5.56" allow="pedestrian delivery bicycle" oneway="0"/>

    <edge id=":10879387436_0" function="internal">
        <lane id=":10879387436_0_0" index="0" allow="pedestrian bicycle" speed="5.52" length="8.51" width="2.00" shape="704.81,498.36 704.11,500.74 702.88,502.02 701.11,502.18 698.82,501.24"/>
    </edge>
    <edge id=":10879387436_1" function="internal">
        <lane id=":10879387436_1_0" index="0" allow="pedestrian bicycle" speed="2.89" length="2.92" width="2.00" shape="704.81,498.36 704.21,499.03 703.68,499.21 703.22,498.88 702.84,498.07"/>
    </edge>
    <edge id=":10879387436_2" function="internal">
        <lane id=":10879387436_2_0" index="0" allow="pedestrian bicycle" speed="4.08" length="4.27" width="2.00" shape="699.83,499.51 700.98,499.98 701.86,499.90 702.48,499.26 702.84,498.07"/>
    </edge>
    <edge id=":10879387436_3" function="internal">
        <lane id=":10879387436_3_0" index="0" allow="pedestrian bicycle" speed="2.89" length="2.92" width="2.00" shape="699.83,499.51 700.22,500.32 700.19,500.88 699.72,501.18 698.82,501.24"/>
    </edge>
    <edge id=":10879387444_0" function="internal">
        <lane id=":10879387444_0_0" index="0" allow="pedestrian bicycle" speed="2.89" length="2.92" width="2.00" shape="764.45,514.45 763.90,513.74 763.82,513.18 764.21,512.79 765.08,512.55"/>
    </edge>
    <edge id=":10879387445_0" function="internal">
        <lane id=":10879387445_0_0" index="0" allow="pedestrian bicycle" speed="5.56" length="7.56" width="2.00" shape="844.67,541.08 837.49,538.71"/>
    </edge>
    <edge id=":10879387445_1" function="internal">
        <lane id=":10879387445_1_0" index="0" allow="pedestrian bicycle" speed="2.89" length="2.39" width="2.00" shape="844.67,541.08 844.11,540.37 844.03,539.82 844.42,539.42 844.78,539.32"/>
    </edge>
    <edge id=":10879387445_4" function="internal">
        <lane id=":10879387445_4_0" index="0" allow="pedestrian bicycle" speed="2.89" length="0.53" width="2.00" shape="844.78,539.32 845.29,539.18"/>
    </edge>
    <edge id=":10879387445_2" function="internal">
        <lane id=":10879387445_2_0" index="0" allow="pedestrian bicycle" speed="5.56" length="7.55" width="2.00" shape="838.12,536.81 845.29,539.18"/>
    </edge>
    <edge id=":10879387445_3" function="internal">
        <lane id=":10879387445_3_0" index="0" allow="pedestrian bicycle" speed="2.89" length="2.39" width="2.00" shape="838.12,536.81 838.68,537.52 838.76,538.07 838.36,538.47 838.01,538.57"/>
    </edge>
    <edge id=":10879387445_5" function="internal">
        <lane id=":10879387445_5_0" index="0" allow="pedestrian bicycle" speed="2.89" length="0.53" width="2.00" shape="838.01,538.57 837.49,538.71"/>
    </edge>
    <edge id=":10879387447_0" function="internal">
        <lane id=":10879387447_0_0" index="0" allow="pedestrian bicycle" speed="2.89" length="2.92" width="2.00" shape="848.39,540.20 848.95,540.91 849.03,541.46 848.64,541.86 847.77,542.10"/>
    </edge>
    <edge id=":2434581990_0" function="internal">
        <lane id=":2434581990_0_0" index="0" allow="pedestrian bicycle" speed="2.89" length="2.92" width="2.00" shape="705.79,480.63 706.42,479.99 706.96,479.84 707.40,480.18 707.75,481.01"/>
    </edge>
    <edge id=":297840911_0" function="internal">
        <lane id=":297840911_0_0" index="0" disallow="tram rail_urban rail rail_electric rail_fast ship" speed="3.65" length="4.67" shape="735.88,-0.31 736.90,-1.33 737.76,-1.57 738.47,-1.02 739.02,0.31"/>
    </edge>
    <edge id=":297840993_0" function="internal">
        <lane id=":297840993_0_0" index="0" allow="pedestrian delivery bicycle" speed="4.94" length="5.12" shape="643.50,562.66 642.09,562.46 640.99,562.77 640.22,563.60 639.76,564.95"/>
    </edge>
    <edge id=":297840993_1" function="internal">
        <lane id=":297840993_1_0" index="0" allow="pedestrian delivery bicycle" speed="5.56" length="14.63" shape="643.50,562.66 629.31,559.05"/>
    </edge>
    <edge id=":297840993_2" function="internal">
        <lane id=":297840993_2_0" index="0" allow="pedestrian delivery bicycle" speed="7.89" length="13.11" shape="643.50,562.66 639.49,561.09 636.81,559.12 635.48,556.75 635.48,553.99"/>
    </edge>
    <edge id=":297840993_3" function="internal">
        <lane id=":297840993_3_0" index="0" allow="pedestrian delivery bicycle" speed="3.65" length="4.67" shape="643.50,562.66 642.57,561.55 642.41,560.67 643.02,560.02 644.40,559.59"/>
    </edge>
    <edge id=":297840993_4" function="internal">
        <lane id=":297840993_4_0" index="0" allow="pedestrian delivery bicycle" speed="5.39" length="5.59" shape="641.72,555.40 641.62,556.86 642.03,558.04 642.96,558.95 644.40,559.59"/>
    </edge>
    <edge id=":297840993_5" function="internal">
        <lane id=":297840993_5_0" index="0" disallow="tram rail_urban rail rail_electric rail_fast ship" speed="13.89" length="9.80" shape="641.72,555.40 639.76,564.95"/>
        <lane id=":297840993_5_1" index="1" disallow="tram rail_urban rail rail_electric rail_fast ship" speed="13.89" length="9.80" shape="638.60,554.70 636.61,564.36"/>
    </edge>
    <edge id=":297840993_7" function="internal">
        <lane id=":297840993_7_0" index="0" allow="pedestrian delivery bicycle" speed="4.62" length="3.97" shape="629.95,555.92 630.75,555.89 631.42,555.44 631.95,554.57 632.36,553.28"/>
    </edge>
    <edge id=":297840993_8" function="internal">
        <lane id=":297840993_8_0" index="0" allow="pedestrian delivery bicycle" speed="5.56" length="14.90" shape="629.95,555.92 644.40,559.59"/>
    </edge>
    <edge id=":297840993_9" function="internal">
        <lane id=":297840993_9_0" index="0" allow="pedestrian delivery bicycle" speed="7.50" length="12.19" shape="629.95,555.92 633.35,557.06 635.59,558.84 636.68,561.27 636.61,564.36"/>
    </edge>
    <edge id=":297840993_10" function="internal">
        <lane id=":297840993_10_0" index="0" allow="pedestrian delivery bicycle" speed="3.65" length="4.67" shape="629.95,555.92 630.97,556.94 631.20,557.81 630.65,558.51 629.31,559.05"/>
    </edge>
    <edge id=":297840993_11" function="internal">
        <lane id=":297840993_11_0" index="0" allow="pedestrian delivery bicycle" speed="4.92" length="4.65" shape="630.32,563.17 630.53,561.50 630.43,560.26 630.02,559.44 629.31,559.05"/>
    </edge>
    <edge id=":297840993_12" function="internal">
        <lane id=":297840993_12_0" index="0" disallow="tram rail_urban rail rail_electric rail_fast ship" speed="13.89" length="10.04" shape="630.32,563.17 632.36,553.28"/>
        <lane id=":297840993_12_1" index="1" disallow="tram rail_urban rail rail_electric rail_fast ship" speed="13.89" length="10.04" shape="633.47,563.76 635.48,553.99"/>
    </edge>
    <edge id=":297840993_14" function="internal">
        <lane id=":297840993_14_0" index="0" allow="pedestrian delivery bicycle" speed="7.56" length="3.12" shape="633.47,563.76 634.65,560.88"/>
    </edge>
    <edge id=":297840993_15" function="internal">
        <lane id=":297840993_15_0" index="0" allow="pedestrian delivery bicycle" speed="7.56" length="10.41" shape="634.65,560.88 636.86,559.22 640.11,558.79 644.40,559.59"/>
    </edge>
    <edge id=":3567493645_0" function="internal">
        <lane id=":3567493645_0_0" index="0" disallow="tram rail_urban rail rail_electric rail_fast ship" speed="22.22" length="5.10" shape="666.15,511.63 664.66,511.87 663.67,512.17 662.71,512.58 661.32,513.19"/>
    </edge>
    <edge id=":391899577_0" function="internal">
        <lane id=":391899577_0_0" index="0" disallow="tram rail_urban rail rail_electric rail_fast ship" speed="3.65" length="4.67" shape="871.00,628.72 871.95,629.80 872.13,630.68 871.53,631.35 870.16,631.80"/>
    </edge>
    <edge id=":4348062166_0" function="internal">
        <lane id=":4348062166_0_0" index="0" disallow="tram rail_urban rail rail_electric rail_fast ship" speed="6.38" length="7.13" shape="761.34,589.49 759.42,588.12 757.71,587.40 756.21,587.33 754.91,587.91"/>
    </edge>
    <edge id=":4348062166_1" function="internal">
        <lane id=":4348062166_1_0" index="0" disallow="tram rail_urban rail rail_electric rail_fast ship" speed="13.89" length="13.83" shape="761.34,589.49 758.15,586.77 756.08,584.78 754.19,582.61 751.54,579.35"/>
        <lane id=":4348062166_1_1" index="1" disallow="tram rail_urban rail rail_electric rail_fast ship" speed="13.89" length="13.83" shape="763.39,587.03 760.34,584.43 758.36,582.52 756.56,580.44 754.02,577.33"/>
    </edge>
    <edge id=":4348062166_3" function="internal">
        <lane id=":4348062166_3_0" index="0" disallow="tram rail_urban rail rail_electric rail_fast ship" speed="3.65" length="1.44" shape="763.39,587.03 762.98,585.65"/>
    </edge>
    <edge id=":4348062166_11" function="internal">
        <lane id=":4348062166_11_0" index="0" disallow="tram rail_urban rail rail_electric rail_fast ship" speed="3.65" length="3.23" shape="762.98,585.65 763.19,584.78 764.01,584.42 765.44,584.58"/>
    </edge>
    <edge id=":4348062166_4" function="internal">
        <lane id=":4348062166_4_0" index="0" disallow="tram rail_urban rail rail_electric rail_fast ship" speed="13.89" length="12.61" shape="758.98,573.29 761.29,576.12 762.93,578.01 764.72,579.75 767.49,582.12"/>
        <lane id=":4348062166_4_1" index="1" disallow="tram rail_urban rail rail_electric rail_fast ship" speed="13.89" length="12.61" shape="756.50,575.31 758.92,578.28 760.65,580.27 762.53,582.09 765.44,584.58"/>
    </edge>
    <edge id=":4348062166_6" function="internal">
        <lane id=":4348062166_6_0" index="0" disallow="tram rail_urban rail rail_electric rail_fast ship" speed="8.01" length="4.12" shape="756.50,575.31 758.56,578.74 758.57,578.86"/>
    </edge>
    <edge id=":4348062166_7" function="internal">
        <lane id=":4348062166_7_0" index="0" disallow="tram rail_urban rail rail_electric rail_fast ship" speed="3.65" length="1.44" shape="756.50,575.31 756.64,576.75"/>
    </edge>
    <edge id=":4348062166_12" function="internal">
        <lane id=":4348062166_12_0" index="0" disallow="tram rail_urban rail rail_electric rail_fast ship" speed="8.01" length="10.48" shape="758.57,578.86 758.98,581.98 757.76,585.04 754.91,587.91"/>
    </edge>
    <edge id=":4348062166_13" function="internal">
        <lane id=":4348062166_13_0" index="0" disallow="tram rail_urban rail rail_electric rail_fast ship" speed="3.65" length="3.23" shape="756.64,576.75 756.27,577.56 755.40,577.76 754.02,577.33"/>
    </edge>
    <edge id=":4348062166_8" function="internal">
        <lane id=":4348062166_8_0" index="0" disallow="tram rail_urban rail rail_electric rail_fast ship" speed="5.69" length="6.84" shape="752.98,585.36 753.69,584.38 753.69,583.05 752.97,581.37 751.54,579.35"/>
    </edge>
    <edge id=":4348062166_9" function="internal">
        <lane id=":4348062166_9_0" index="0" disallow="tram rail_urban rail rail_electric rail_fast ship" speed="8.58" length="13.60" shape="752.98,585.36 756.40,583.31 759.61,582.50 762.63,582.92 765.44,584.58"/>
    </edge>
    <edge id=":4348062166_10" function="internal">
        <lane id=":4348062166_10_0" index="0" disallow="tram rail_urban rail rail_electric rail_fast ship" speed="3.65" length="4.67" shape="752.98,585.36 754.42,585.27 755.22,585.67 755.39,586.55 754.91,587.91"/>
    </edge>
    <edge id=":4427162271_0" function="internal">
        <lane id=":4427162271_0_0" index="0" disallow="tram rail_urban rail rail_electric rail_fast ship" speed="13.89" length="2.89" shape="645.17,477.50 645.78,474.65"/>
        <lane id=":4427162271_0_1" index="1" disallow="tram rail_urban rail rail_electric rail_fast ship" speed="13.89" length="2.89" shape="648.31,478.12 648.91,475.33"/>
    </edge>
    <edge id=":4428291878_0" function="internal">
        <lane id=":4428291878_0_0" index="0" allow="pedestrian delivery bicycle" speed="5.17" length="5.39" shape="605.61,554.94 604.23,554.93 603.16,555.43 602.42,556.44 601.99,557.96"/>
    </edge>
    <edge id=":4428291878_1" function="internal">
        <lane id=":4428291878_1_0" index="0" allow="pedestrian delivery bicycle" speed="5.56" length="9.70" shape="605.61,554.94 602.77,554.48 600.81,554.25 598.84,554.17 595.96,554.17"/>
    </edge>
    <edge id=":4428291878_2" function="internal">
        <lane id=":4428291878_2_0" index="0" allow="pedestrian delivery bicycle" speed="3.65" length="4.67" shape="605.61,554.94 604.56,553.95 604.31,553.10 604.83,552.38 606.15,551.79"/>
    </edge>
    <edge id=":4428291878_3" function="internal">
        <lane id=":4428291878_3_0" index="0" allow="pedestrian delivery bicycle" speed="5.56" length="10.25" shape="595.95,550.98 598.96,550.98 601.08,551.06 603.18,551.30 606.15,551.79"/>
    </edge>
    <edge id=":4428291878_4" function="internal">
        <lane id=":4428291878_4_0" index="0" allow="pedestrian delivery bicycle" speed="5.56" length="10.94" shape="595.95,550.98 598.99,551.40 601.00,552.71 602.01,554.90 601.99,557.96"/>
    </edge>
    <edge id=":4428291878_5" function="internal">
        <lane id=":4428291878_5_0" index="0" allow="pedestrian delivery bicycle" speed="3.65" length="4.67" shape="595.95,550.98 597.16,551.77 597.56,552.57 597.16,553.37 595.96,554.17"/>
    </edge>
    <edge id=":4428291878_6" function="internal">
        <lane id=":4428291878_6_0" index="0" allow="pedestrian delivery bicycle" speed="4.89" length="5.19" shape="598.83,557.49 598.83,556.04 598.36,555.00 597.40,554.38 595.96,554.17"/>
    </edge>
    <edge id=":4428291878_7" function="internal">
        <lane id=":4428291878_7_0" index="0" allow="pedestrian delivery bicycle" speed="5.56" length="10.63" shape="598.83,557.49 599.66,554.59 601.16,552.67 603.33,551.74 606.15,551.79"/>
    </edge>
    <edge id=":4428291878_8" function="internal">
        <lane id=":4428291878_8_0" index="0" allow="pedestrian delivery bicycle" speed="3.65" length="4.67" shape="598.83,557.49 599.80,556.42 600.65,556.14 601.38,556.66 601.99,557.96"/>
    </edge>
    <edge id=":6754196217_0" function="internal">
        <lane id=":6754196217_0_0" index="0" allow="pedestrian bicycle" speed="2.89" length="2.92" width="2.00" shape="669.86,484.55 669.46,483.75 669.49,483.19 669.95,482.88 670.85,482.81"/>
    </edge>
    <edge id=":6762047780_0" function="internal">
        <lane id=":6762047780_0_0" index="0" disallow="tram rail_urban rail rail_electric rail_fast ship" speed="13.89" length="4.09" shape="754.75,588.03 753.76,588.72 753.02,589.10 752.25,589.43 751.15,589.95"/>
    </edge>
    <edge id=":6762047780_1" function="internal">
        <lane id=":6762047780_1_0" index="0" disallow="tram rail_urban rail rail_electric rail_fast ship" speed="13.89" length="3.56" shape="749.67,587.12 750.63,586.66 751.31,586.39 751.95,586.07 752.82,585.48"/>
    </edge>
    <edge id=":6762047781_0" function="internal">
        <lane id=":6762047781_0_0" index="0" allow="pedestrian delivery bicycle" speed="5.56" length="5.41" shape="649.26,564.39 644.08,562.83"/>
    </edge>
    <edge id=":6762047781_1" function="internal">
        <lane id=":6762047781_1_0" index="0" allow="pedestrian delivery bicycle" speed="3.65" length="1.44" shape="649.26,564.39 648.35,563.27"/>
    </edge>
    <edge id=":6762047781_4" function="internal">
        <lane id=":6762047781_4_0" index="0" allow="pedestrian delivery bicycle" speed="3.65" length="3.23" shape="648.35,563.27 648.20,562.39 648.82,561.74 650.20,561.33"/>
    </edge>
    <edge id=":6762047781_2" function="internal">
        <lane id=":6762047781_2_0" index="0" allow="pedestrian delivery bicycle" speed="5.56" length="5.45" shape="644.98,559.76 650.20,561.33"/>
    </edge>
    <edge id=":6762047781_3" function="internal">
        <lane id=":6762047781_3_0" index="0" allow="pedestrian delivery bicycle" speed="3.65" length="1.44" shape="644.98,559.76 645.91,560.86"/>
    </edge>
    <edge id=":6762047781_5" function="internal">
        <lane id=":6762047781_5_0" index="0" allow="pedestrian delivery bicycle" speed="3.65" length="3.23" shape="645.91,560.86 646.07,561.74 645.46,562.40 644.08,562.83"/>
    </edge>
    <edge id=":6762047825_0" function="internal">
        <lane id=":6762047825_0_0" index="0" allow="pedestrian delivery bicycle" speed="3.65" length="4.67" shape="850.92,519.60 851.83,520.72 851.97,521.61 851.35,522.25 849.96,522.66"/>
    </edge>
    <edge id=":6762047826_0" function="internal">
        <lane id=":6762047826_0_0" index="0" allow="pedestrian delivery bicycle" speed="3.65" length="4.67" shape="772.78,498.44 771.88,497.32 771.74,496.44 772.36,495.79 773.74,495.39"/>
    </edge>
    <edge id=":6762047832_0" function="internal">
        <lane id=":6762047832_0_0" index="0" allow="pedestrian delivery bicycle" speed="4.61" length="4.12" shape="665.94,456.73 665.08,456.72 664.37,457.14 663.80,458.02 663.39,459.34"/>
    </edge>
    <edge id=":6762047832_1" function="internal">
        <lane id=":6762047832_1_0" index="0" allow="pedestrian delivery bicycle" speed="3.65" length="4.67" shape="665.94,456.73 664.98,455.66 664.79,454.79 665.37,454.11 666.74,453.63"/>
    </edge>
    <edge id=":6762047832_2" function="internal">
        <lane id=":6762047832_2_0" index="0" allow="pedestrian delivery bicycle" speed="4.84" length="4.22" shape="665.16,450.18 665.07,451.49 665.31,452.51 665.86,453.22 666.74,453.63"/>
    </edge>
    <edge id=":6762047832_3" function="internal">
        <lane id=":6762047832_3_0" index="0" disallow="tram rail_urban rail rail_electric rail_fast ship" speed="13.89" length="9.02" shape="665.16,450.18 663.39,459.34"/>
        <lane id=":6762047832_3_1" index="1" disallow="tram rail_urban rail rail_electric rail_fast ship" speed="13.89" length="9.02" shape="662.00,449.67 660.26,458.65"/>
        <lane id=":6762047832_3_2" index="2" disallow="tram rail_urban rail rail_electric rail_fast ship" speed="13.89" length="9.02" shape="658.78,449.53 657.14,457.97"/>
    </edge>
    <edge id=":6762047833_0" function="internal">
        <lane id=":6762047833_0_0" index="0" allow="pedestrian delivery bicycle" speed="3.65" length="4.67" shape="734.14,470.66 735.10,471.73 735.29,472.60 734.71,473.28 733.35,473.76"/>
    </edge>
    <edge id=":6762047834_0" function="internal">
        <lane id=":6762047834_0_0" index="0" allow="pedestrian delivery bicycle" speed="4.89" length="5.20" shape="669.45,425.38 668.00,425.19 666.92,425.53 666.18,426.40 665.80,427.81"/>
    </edge>
    <edge id=":6762047834_1" function="internal">
        <lane id=":6762047834_1_0" index="0" allow="pedestrian delivery bicycle" speed="8.08" length="12.77" shape="669.45,425.38 665.34,423.88 662.49,422.09 660.90,420.00 660.58,417.62"/>
    </edge>
    <edge id=":6762047834_2" function="internal">
        <lane id=":6762047834_2_0" index="0" allow="pedestrian delivery bicycle" speed="3.65" length="4.67" shape="669.45,425.38 668.52,424.28 668.35,423.41 668.95,422.75 670.33,422.31"/>
    </edge>
    <edge id=":6762047834_3" function="internal">
        <lane id=":6762047834_3_0" index="0" allow="pedestrian delivery bicycle" speed="5.62" length="5.70" shape="666.93,418.39 667.02,419.71 667.61,420.79 668.71,421.66 670.33,422.31"/>
    </edge>
    <edge id=":6762047834_4" function="internal">
        <lane id=":6762047834_4_0" index="0" disallow="tram rail_urban rail rail_electric rail_fast ship" speed="13.89" length="9.49" shape="666.93,418.39 665.80,427.81"/>
        <lane id=":6762047834_4_1" index="1" disallow="tram rail_urban rail rail_electric rail_fast ship" speed="13.89" length="9.49" shape="663.76,418.01 662.63,427.43"/>
    </edge>
    <edge id=":6762047834_6" function="internal">
        <lane id=":6762047834_6_0" index="0" disallow="tram rail_urban rail rail_electric rail_fast ship" speed="13.89" length="9.50" shape="656.27,426.67 657.40,417.24"/>
        <lane id=":6762047834_6_1" index="1" disallow="tram rail_urban rail rail_electric rail_fast ship" speed="13.89" length="9.50" shape="659.45,427.05 660.58,417.62"/>
    </edge>
    <edge id=":6762047834_8" function="internal">
        <lane id=":6762047834_8_0" index="0" allow="pedestrian delivery bicycle" speed="7.53" length="3.30" shape="659.45,427.05 660.47,423.91"/>
    </edge>
    <edge id=":6762047834_9" function="internal">
        <lane id=":6762047834_9_0" index="0" allow="pedestrian delivery bicycle" speed="7.53" length="10.65" shape="660.47,423.91 662.62,422.07 665.91,421.54 670.33,422.31"/>
    </edge>
    <edge id=":6762047836_0" function="internal">
        <lane id=":6762047836_0_0" index="0" allow="pedestrian delivery bicycle" speed="5.56" length="8.37" shape="757.82,464.95 757.02,467.14 755.73,468.47 753.93,468.93 751.63,468.53"/>
    </edge>
    <edge id=":6762047836_1" function="internal">
        <lane id=":6762047836_1_0" index="0" allow="pedestrian delivery bicycle" speed="3.90" length="2.79" shape="752.63,465.49 753.39,465.63 753.99,465.47 754.42,465.03 754.69,464.30"/>
    </edge>
    <edge id=":6762047838_0" function="internal">
        <lane id=":6762047838_0_0" index="0" allow="pedestrian delivery bicycle" speed="5.00" length="5.04" shape="729.22,442.42 727.84,442.24 726.75,442.54 725.94,443.34 725.42,444.63"/>
    </edge>
    <edge id=":6762047838_1" function="internal">
        <lane id=":6762047838_1_0" index="0" allow="pedestrian delivery bicycle" speed="5.56" length="9.40" shape="729.22,442.42 720.17,439.85"/>
    </edge>
    <edge id=":6762047838_2" function="internal">
        <lane id=":6762047838_2_0" index="0" allow="pedestrian delivery bicycle" speed="3.65" length="4.67" shape="729.22,442.42 728.28,441.33 728.12,440.45 728.72,439.79 730.09,439.35"/>
    </edge>
    <edge id=":6762047838_3" function="internal">
        <lane id=":6762047838_3_0" index="0" allow="pedestrian delivery bicycle" speed="5.56" length="9.40" shape="721.05,436.77 730.09,439.35"/>
    </edge>
    <edge id=":6762047838_4" function="internal">
        <lane id=":6762047838_4_0" index="0" allow="pedestrian delivery bicycle" speed="5.56" length="10.17" shape="721.05,436.77 723.53,437.89 725.09,439.57 725.72,441.82 725.42,444.63"/>
    </edge>
    <edge id=":6762047838_5" function="internal">
        <lane id=":6762047838_5_0" index="0" allow="pedestrian delivery bicycle" speed="3.65" length="4.67" shape="721.05,436.77 721.99,437.87 722.15,438.75 721.55,439.41 720.17,439.85"/>
    </edge>
    <edge id=":6762047838_6" function="internal">
        <lane id=":6762047838_6_0" index="0" allow="pedestrian delivery bicycle" speed="5.16" length="5.15" shape="722.32,443.86 722.48,442.42 722.17,441.27 721.40,440.41 720.17,439.85"/>
    </edge>
    <edge id=":6762047838_7" function="internal">
        <lane id=":6762047838_7_0" index="0" allow="pedestrian delivery bicycle" speed="5.56" length="10.34" shape="722.32,443.86 723.38,441.22 725.03,439.59 727.27,438.96 730.09,439.35"/>
    </edge>
    <edge id=":6762047838_8" function="internal">
        <lane id=":6762047838_8_0" index="0" allow="pedestrian delivery bicycle" speed="3.65" length="4.67" shape="722.32,443.86 723.38,442.89 724.25,442.69 724.93,443.27 725.42,444.63"/>
    </edge>
    <edge id=":6762047839_0" function="internal">
        <lane id=":6762047839_0_0" index="0" allow="pedestrian delivery bicycle" speed="5.09" length="4.95" shape="558.49,469.49 557.16,469.30 556.07,469.58 555.22,470.32 554.62,471.53"/>
    </edge>
    <edge id=":6762047839_1" function="internal">
        <lane id=":6762047839_1_0" index="0" disallow="tram rail_urban rail rail_electric rail_fast ship" speed="13.89" length="9.15" shape="558.49,469.49 549.69,466.58"/>
        <lane id=":6762047839_1_1" index="1" disallow="tram rail_urban rail rail_electric rail_fast ship" speed="13.89" length="9.15" shape="559.38,466.41 550.81,463.58"/>
    </edge>
    <edge id=":6762047839_3" function="internal">
        <lane id=":6762047839_3_0" index="0" disallow="tram rail_urban rail rail_electric rail_fast ship" speed="13.89" length="8.64" shape="553.06,457.59 561.15,460.26"/>
        <lane id=":6762047839_3_1" index="1" disallow="tram rail_urban rail rail_electric rail_fast ship" speed="13.89" length="8.64" shape="551.94,460.58 560.26,463.34"/>
    </edge>
    <edge id=":6762047839_5" function="internal">
        <lane id=":6762047839_5_0" index="0" allow="pedestrian delivery bicycle" speed="7.68" length="2.71" shape="551.94,460.58 554.21,462.06"/>
    </edge>
    <edge id=":6762047839_9" function="internal">
        <lane id=":6762047839_9_0" index="0" allow="pedestrian delivery bicycle" speed="7.68" length="9.88" shape="554.21,462.06 555.41,464.37 555.55,467.53 554.62,471.53"/>
    </edge>
    <edge id=":6762047839_6" function="internal">
        <lane id=":6762047839_6_0" index="0" allow="pedestrian delivery bicycle" speed="5.08" length="4.95" shape="551.58,470.53 551.82,469.20 551.59,468.10 550.88,467.22 549.69,466.58"/>
    </edge>
    <edge id=":6762047839_7" function="internal">
        <lane id=":6762047839_7_0" index="0" allow="pedestrian delivery bicycle" speed="7.68" length="12.59" shape="551.58,470.53 553.22,466.76 555.22,464.31 557.56,463.17 560.26,463.34"/>
    </edge>
    <edge id=":6762047839_8" function="internal">
        <lane id=":6762047839_8_0" index="0" allow="pedestrian delivery bicycle" speed="3.65" length="4.67" shape="551.58,470.53 552.72,469.64 553.60,469.51 554.24,470.14 554.62,471.53"/>
    </edge>
    <edge id=":6762047840_0" function="internal">
        <lane id=":6762047840_0_0" index="0" allow="pedestrian delivery bicycle" speed="5.04" length="5.00" shape="553.45,487.00 552.10,486.83 551.01,487.12 550.19,487.90 549.63,489.15"/>
    </edge>
    <edge id=":6762047840_1" function="internal">
        <lane id=":6762047840_1_0" index="0" allow="pedestrian delivery bicycle" speed="5.56" length="10.13" shape="553.45,487.00 550.91,485.89 549.32,484.23 548.70,482.02 549.03,479.28"/>
    </edge>
    <edge id=":6762047840_2" function="internal">
        <lane id=":6762047840_2_0" index="0" allow="pedestrian delivery bicycle" speed="3.65" length="4.67" shape="553.45,487.00 552.51,485.91 552.34,485.03 552.94,484.37 554.32,483.92"/>
    </edge>
    <edge id=":6762047840_3" function="internal">
        <lane id=":6762047840_3_0" index="0" allow="pedestrian delivery bicycle" speed="5.06" length="5.01" shape="552.12,480.11 551.96,481.46 552.27,482.55 553.06,483.37 554.32,483.92"/>
    </edge>
    <edge id=":6762047840_4" function="internal">
        <lane id=":6762047840_4_0" index="0" allow="pedestrian delivery bicycle" speed="5.56" length="9.38" shape="552.12,480.11 549.63,489.15"/>
    </edge>
    <edge id=":6762047840_5" function="internal">
        <lane id=":6762047840_5_0" index="0" allow="pedestrian delivery bicycle" speed="3.65" length="4.67" shape="552.12,480.11 551.04,481.06 550.16,481.24 549.49,480.64 549.03,479.28"/>
    </edge>
    <edge id=":6762047840_6" function="internal">
        <lane id=":6762047840_6_0" index="0" allow="pedestrian delivery bicycle" speed="5.56" length="9.35" shape="546.55,488.29 549.03,479.28"/>
    </edge>
    <edge id=":6762047840_7" function="internal">
        <lane id=":6762047840_7_0" index="0" allow="pedestrian delivery bicycle" speed="5.56" length="10.15" shape="546.55,488.29 547.68,485.74 549.34,484.17 551.56,483.56 554.32,483.92"/>
    </edge>
    <edge id=":6762047840_8" function="internal">
        <lane id=":6762047840_8_0" index="0" allow="pedestrian delivery bicycle" speed="3.65" length="4.67" shape="546.55,488.29 547.65,487.35 548.53,487.18 549.19,487.78 549.63,489.15"/>
    </edge>
    <edge id=":6762047842_0" function="internal">
        <lane id=":6762047842_0_0" index="0" allow="pedestrian delivery bicycle" speed="5.56" length="7.73" shape="586.85,514.00 585.99,515.93 584.72,517.13 583.04,517.60 580.94,517.32"/>
    </edge>
    <edge id=":6762047842_1" function="internal">
        <lane id=":6762047842_1_0" index="0" allow="pedestrian delivery bicycle" speed="3.90" length="2.58" shape="581.80,514.24 582.50,514.33 583.06,514.18 583.48,513.78 583.77,513.13"/>
    </edge>
    <edge id=":6778463094_0" function="internal">
        <lane id=":6778463094_0_0" index="0" allow="pedestrian delivery bicycle" speed="5.56" length="5.45" shape="517.09,460.16 515.97,465.50"/>
    </edge>
    <edge id=":6778463094_1" function="internal">