<?xml version="1.0" encoding="UTF-8"?>

<!-- generated on 2023-07-16 19:21:57.701167 by randomTrips.py v1_18_0+0000-03ecfdea036
<configuration>
    <net-file value="keeleandmajmack.net.xml"/>
    <route-file value="keeleandmajmack.rou.xml"/>
    <length value="True"/>
    <end value="50.0"/>
</configuration>
-->

<!-- generated on 2023-07-16 19:21:57 by Eclipse SUMO duarouter Version 1.18.0
<configuration xmlns:xsi="http://www.w3.org/2001/XMLSchema-instance" xsi:noNamespaceSchemaLocation="http://sumo.dlr.de/xsd/duarouterConfiguration.xsd">

    <input>
        <net-file value="keeleandmajmack.net.xml"/>
        <route-files value="trips.trips.xml"/>
    </input>

    <output>
        <output-file value="keeleandmajmack.rou.xml"/>
        <alternatives-output value="NUL"/>
    </output>

    <time>
        <begin value="0"/>
        <end value="50.0"/>
    </time>

    <report>
        <no-warnings value="true"/>
        <ignore-errors value="true"/>
        <no-step-log value="true"/>
    </report>

</configuration>
-->

<routes xmlns:xsi="http://www.w3.org/2001/XMLSchema-instance" xsi:noNamespaceSchemaLocation="http://sumo.dlr.de/xsd/routes_file.xsd">
    <vehicle id="0" depart="0.00">
        <route edges="55062715#1 55062715#2 55062715#3 55062715#4 -55062715#4 -55062715#3 -55062715#2 -55062715#1 -55062715#0"/>
    </vehicle>
    <vehicle id="1" depart="1.00">
        <route edges="-55062715#4 -55062715#3 -55062715#2 -55062715#1"/>
    </vehicle>
    <vehicle id="2" depart="2.00">
        <route edges="55062715#2 55062715#3 55062715#4 -55062715#4 -55062715#3 -55062715#2 -55062715#1 -55062715#0 55062715#0 55062715#1"/>
    </vehicle>
    <vehicle id="3" depart="3.00">
        <route edges="55062754#1 55062761#0 55062761#1 55062726 55062741#0 55062741#1 -55062715#4 -55062715#3 -55062715#2 -55062715#1"/>
    </vehicle>
    <vehicle id="4" depart="4.00">
        <route edges="-961179432#1 -961179432#0 55062702#0 55062702#1 55062747 55062726 55062741#0 55062741#1 -55062715#4 -55062715#3 -55062715#2 -55062715#1"/>
    </vehicle>
    <vehicle id="5" depart="5.00">
        <route edges="-55062715#1 -55062715#0 55062715#0 55062715#1"/>
    </vehicle>
    <vehicle id="6" depart="6.00">
        <route edges="-55062715#1"/>
    </vehicle>
    <vehicle id="7" depart="7.00">
        <route edges="55062715#1"/>
    </vehicle>
    <vehicle id="8" depart="8.00">
        <route edges="-55062715#1 -55062715#0 55062715#0 55062715#1"/>
    </vehicle>
    <vehicle id="9" depart="9.00">
        <route edges="55062731#1 55062718#0 55062718#1 55062734 55062710 55062754#0 55062754#1 445445287 55062774 -55062774 -445445287"/>
    </vehicle>
    <vehicle id="10" depart="10.00">
        <route edges="55062731#1 55062718#0 55062718#1 55062741#0 55062741#1 -55062715#4 -55062715#3 -55062715#2 -55062715#1 -55062715#0 55062715#0 55062715#1 55062715#2"/>
    </vehicle>
    <vehicle id="11" depart="11.00">
        <route edges="-786894172#1 -786894172#0 786894172#0 786894172#1 786894172#2 -961179432#0 55062702#0 55062702#1 55062747 55062726 55062741#0 55062741#1 -55062715#4 -55062715#3 -55062715#2 -55062715#1"/>
    </vehicle>
    <vehicle id="12" depart="12.00">
        <route edges="961179432#0 -961179432#0 55062702#0 55062702#1 55062747 55062731#0 55062731#1 -55062748#2 -55062748#1"/>
    </vehicle>
    <vehicle id="13" depart="13.00">
        <route edges="-55062715#1"/>
    </vehicle>
    <vehicle id="14" depart="14.00">
        <route edges="55062748#0 55062748#1 55062748#2 55062718#0 55062718#1 55062741#0 55062741#1 -55062715#4 -55062715#3 -55062715#2 -55062715#1 -55062715#0 55062715#0 55062715#1"/>
    </vehicle>
    <vehicle id="15" depart="15.00">
        <route edges="55062731#1 55062718#0 55062718#1 55062741#0 55062741#1 -55062715#4 -55062715#3 -55062715#2 -55062715#1 -55062715#0 55062715#0 55062715#1 55062715#2 55062715#3 55062715#4"/>
    </vehicle>
    <vehicle id="16" depart="16.00">
        <route edges="55062715#1 55062715#2 55062715#3 55062715#4 55062735#0 55062735#1 55062735#2 55062695#0 55062695#1 961179432#0 961179432#1"/>
    </vehicle>
    <vehicle id="17" depart="17.00">
        <route edges="-961179432#0 55062702#0 55062702#1 55062747 55062726 55062741#0 55062741#1 -55062715#4 -55062715#3 -55062715#2 -55062715#1 -55062715#0 55062715#0 55062715#1"/>
    </vehicle>
    <vehicle id="18" depart="18.00">
        <route edges="55062741#1 -55062715#4 -55062715#3 -55062715#2 -55062715#1 -55062715#0 55062715#0 55062715#1"/>
    </vehicle>
    <vehicle id="19" depart="19.00">
        <route edges="55062748#1 55062748#2 55062718#0 55062718#1 55062741#0 55062741#1 -55062715#4 -55062715#3 -55062715#2 -55062715#1 -55062715#0 55062715#0 55062715#1"/>
    </vehicle>
    <vehicle id="20" depart="20.00">
        <route edges="55062715#1 55062715#2 55062715#3 55062715#4 -55062715#4 -55062715#3 -55062715#2 -55062715#1"/>
    </vehicle>
    <vehicle id="21" depart="21.00">
        <route edges="-55062715#2 -55062715#1 -55062715#0 55062715#0 55062715#1 55062715#2 55062715#3 55062715#4 55062735#0 55062735#1 55062735#2 55062710 55062747 55062731#0 55062731#1 -55062748#2 -55062748#1 -55062748#0"/>
    </vehicle>
    <vehicle id="22" depart="22.00">
        <route edges="-55062715#1 -55062715#0 55062715#0 55062715#1 55062715#2 55062715#3 55062715#4 -55062715#4 -55062715#3 -55062715#2"/>
    </vehicle>
    <vehicle id="23" depart="23.00">
        <route edges="-55062715#1 -55062715#0 55062715#0 55062715#1 55062715#2 55062715#3 55062715#4 -55062715#4 -55062715#3 -55062715#2"/>
    </vehicle>
    <vehicle id="24" depart="24.00">
        <route edges="55062715#1 55062715#2 55062715#3 55062715#4 55062735#0 55062735#1 55062735#2 55062695#0 55062695#1 961179432#0 -786894172#2 -786894172#1 -786894172#0"/>
    </vehicle>
    <vehicle id="25" depart="25.00">
        <route edges="-961179432#0 55062702#0 55062702#1 55062747 55062726 55062741#0 55062741#1 -55062715#4 -55062715#3 -55062715#2 -55062715#1"/>
    </vehicle>
    <vehicle id="26" depart="26.00">
        <route edges="-55062715#2 -55062715#1 -55062715#0 55062715#0 55062715#1 55062715#2 55062715#3 55062715#4 55062735#0 55062735#1 55062735#2 55062695#0 55062695#1 961179432#0 961179432#1"/>
    </vehicle>
    <vehicle id="27" depart="27.00">
        <route edges="55062715#1"/>
    </vehicle>
    <vehicle id="28" depart="28.00">
        <route edges="-55062715#1 -55062715#0 55062715#0 55062715#1 55062715#2 55062715#3 55062715#4"/>
    </vehicle>
    <vehicle id="29" depart="29.00">
        <route edges="-55062715#1 -55062715#0 55062715#0 55062715#1 55062715#2 55062715#3 55062715#4 55062735#0 55062735#1 55062735#2 55062695#0 55062695#1 961179432#0 -786894172#2 -786894172#1"/>
    </vehicle>
    <vehicle id="30" depart="30.00">
        <route edges="961179432#0 -961179432#0 55062702#0 55062702#1 55062747 55062726 55062741#0 55062741#1 -55062715#4 -55062715#3 -55062715#2 -55062715#1 -55062715#0 55062715#0 55062715#1"/>
    </vehicle>
    <vehicle id="31" depart="31.00">
        <route edges="55062715#1 55062715#2"/>
    </vehicle>
    <vehicle id="32" depart="32.00">
        <route edges="55062748#0 55062748#1 55062748#2 55062718#0 55062718#1 55062741#0 55062741#1"/>
    </vehicle>
    <vehicle id="33" depart="33.00">
        <route edges="-55062715#2 -55062715#1"/>
    </vehicle>
    <vehicle id="34" depart="34.00">
        <route edges="-55062748#1 -55062748#0 55062748#0 55062748#1 55062748#2 55062718#0 55062718#1 55062741#0 55062741#1 -55062715#4 -55062715#3 -55062715#2"/>
    </vehicle>
    <vehicle id="35" depart="35.00">
        <route edges="-55062715#1 -55062715#0 55062715#0 55062715#1 55062715#2 55062715#3 55062715#4 55062735#0 55062735#1 55062735#2 55062695#0 55062695#1 961179432#0 961179432#1"/>
    </vehicle>
    <vehicle id="36" depart="36.00">
        <route edges="55062748#1 55062748#2 -55062748#2 -55062748#1"/>
    </vehicle>
    <vehicle id="37" depart="37.00">
        <route edges="55062715#1 55062715#2 55062715#3 55062715#4 55062735#0 55062735#1 55062735#2 55062695#0 55062695#1 961179432#0 -961179432#0"/>
    </vehicle>
    <vehicle id="38" depart="38.00">
        <route edges="786894172#0 786894172#1 786894172#2 -961179432#0 172423262#0 172423262#1 445445287"/>
    </vehicle>
    <vehicle id="39" depart="39.00">
        <route edges="-55062715#2"/>
    </vehicle>
    <vehicle id="40" depart="40.00">
        <route edges="55062715#1 55062715#2 55062715#3 55062715#4 -55062715#4 -55062715#3 -55062715#2"/>
    </vehicle>
    <vehicle id="41" depart="41.00">
        <route edges="55062715#1 55062715#2 55062715#3 55062715#4 55062735#0 55062735#1 55062735#2 55062695#0 55062695#1 961179432#0"/>
    </vehicle>
    <vehicle id="42" depart="42.00">
        <route edges="-961179432#0 55062702#0 55062702#1 55062747 55062726 55062741#0 55062741#1 -55062715#4 -55062715#3 -55062715#2 -55062715#1"/>
    </vehicle>
    <vehicle id="43" depart="43.00">
        <route edges="961179432#0 -961179432#0 55062702#0 55062702#1 55062747 55062726 55062741#0 55062741#1 -55062715#4 -55062715#3 -55062715#2 -55062715#1 -55062715#0 55062715#0 55062715#1"/>
    </vehicle>
    <vehicle id="44" depart="44.00">
        <route edges="-55062715#1"/>
    </vehicle>
    <vehicle id="45" depart="45.00">
        <route edges="-55062715#1 -55062715#0 55062715#0 55062715#1"/>
    </vehicle>
    <vehicle id="46" depart="46.00">
        <route edges="55062718#0 55062718#1 55062734 55062695#0 55062695#1 961179432#0 -961179432#0"/>
    </vehicle>
    <vehicle id="47" depart="47.00">
        <route edges="-55062715#1 -55062715#0 55062715#0 55062715#1 55062715#2 55062715#3 55062715#4 55062735#0 55062735#1 55062735#2 55062695#0 55062695#1 961179432#0 -786894172#2 -786894172#1"/>
    </vehicle>
    <vehicle id="48" depart="48.00">
        <route edges="961179432#0 -961179432#0 55062702#0 55062702#1 55062747 55062726 55062741#0 55062741#1 -55062715#4 -55062715#3 -55062715#2 -55062715#1 -55062715#0 55062715#0 55062715#1"/>
    </vehicle>
    <vehicle id="49" depart="49.00">
        <route edges="961179432#0 -786894172#2 -786894172#1 -786894172#0 786894172#0 786894172#1"/>
    </vehicle>
</routes>
