<?xml version="1.0" encoding="UTF-8"?>

<!-- generated on 2024-01-28 14:44:52 by Eclipse SUMO netedit Version 1.18.0
<configuration xmlns:xsi="http://www.w3.org/2001/XMLSchema-instance" xsi:noNamespaceSchemaLocation="http://sumo.dlr.de/xsd/neteditConfiguration.xsd">

    <input>
        <sumo-net-file value="C:\Users\chuny\Desktop\lucas\TimIssue11\traffic_optimization\mynetworks\school.net.xml"/>
    </input>

    <output>
        <output-file value="C:\Users\chuny\Desktop\lucas\TimIssue11\traffic_optimization\mynetworks\school.net.xml"/>
    </output>

    <processing>
        <geometry.min-radius.fix.railways value="false"/>
        <geometry.max-grade.fix value="false"/>
        <offset.disable-normalization value="true"/>
        <lefthand value="0"/>
    </processing>

    <junctions>
        <no-turnarounds value="true"/>
        <junctions.corner-detail value="5"/>
        <junctions.limit-turn-speed value="5.50"/>
        <rectangular-lane-cut value="0"/>
    </junctions>

    <pedestrian>
        <walkingareas value="0"/>
    </pedestrian>

</configuration>
-->

<net version="1.16" junctionCornerDetail="5" limitTurnSpeed="5.50" xmlns:xsi="http://www.w3.org/2001/XMLSchema-instance" xsi:noNamespaceSchemaLocation="http://sumo.dlr.de/xsd/net_file.xsd">

    <location netOffset="0.00,0.00" convBoundary="-277.23,-418.26,302.92,183.78" origBoundary="-10000000000.00,-10000000000.00,10000000000.00,10000000000.00" projParameter="!"/>

    <edge id=":J11_0" function="internal">
        <lane id=":J11_0_0" index="0" speed="6.49" length="9.03" shape="-158.48,94.37 -158.82,91.92 -159.87,90.17 -161.63,89.13 -164.08,88.80"/>
    </edge>
    <edge id=":J11_1" function="internal">
        <lane id=":J11_1_0" index="0" speed="13.89" length="27.15" shape="-158.48,94.37 -158.29,67.19"/>
        <lane id=":J11_1_1" index="1" speed="13.89" length="27.15" shape="-155.28,94.38 -155.09,67.23"/>
        <lane id=":J11_1_2" index="2" speed="13.89" length="27.15" shape="-152.08,94.38 -151.89,67.27"/>
    </edge>
    <edge id=":J11_4" function="internal">
        <lane id=":J11_4_0" index="0" speed="10.59" length="5.16" shape="-152.08,94.38 -151.33,89.27"/>
    </edge>
    <edge id=":J11_19" function="internal">
        <lane id=":J11_19_0" index="0" speed="10.59" length="19.80" shape="-151.33,89.27 -151.10,87.69 -148.20,82.84 -143.37,79.82 -136.62,78.64"/>
    </edge>
    <edge id=":J11_5" function="internal">
        <lane id=":J11_5_0" index="0" speed="7.63" length="12.48" shape="-136.40,85.04 -139.05,85.70 -140.95,87.48 -142.09,90.38 -142.48,94.39"/>
    </edge>
    <edge id=":J11_6" function="internal">
        <lane id=":J11_6_0" index="0" speed="13.89" length="27.84" shape="-136.40,85.04 -142.98,85.76 -148.75,87.01 -155.27,88.22 -164.08,88.80"/>
        <lane id=":J11_6_1" index="1" speed="13.89" length="27.84" shape="-136.51,81.84 -143.08,82.56 -148.83,83.81 -155.32,85.02 -164.10,85.60"/>
        <lane id=":J11_6_2" index="2" speed="13.89" length="27.84" shape="-136.51,81.84 -164.12,82.40"/>
    </edge>
    <edge id=":J11_9" function="internal">
        <lane id=":J11_9_0" index="0" speed="10.17" length="7.38" shape="-136.51,81.84 -143.31,81.13 -143.78,80.87"/>
    </edge>
    <edge id=":J11_20" function="internal">
        <lane id=":J11_20_0" index="0" speed="10.17" length="17.04" shape="-143.78,80.87 -148.14,78.46 -151.00,73.84 -151.89,67.27"/>
    </edge>
    <edge id=":J11_10" function="internal">
        <lane id=":J11_10_0" index="0" speed="7.05" length="11.16" shape="-142.29,67.39 -141.98,70.99 -140.95,73.53 -139.20,75.01 -136.72,75.44"/>
    </edge>
    <edge id=":J11_11" function="internal">
        <lane id=":J11_11_0" index="0" speed="13.89" length="27.04" shape="-142.29,67.39 -142.48,94.39"/>
        <lane id=":J11_11_1" index="1" speed="13.89" length="27.04" shape="-145.49,67.35 -145.68,94.39"/>
        <lane id=":J11_11_2" index="2" speed="13.89" length="27.04" shape="-148.69,67.31 -148.88,94.38"/>
    </edge>
    <edge id=":J11_14" function="internal">
        <lane id=":J11_14_0" index="0" speed="10.43" length="4.76" shape="-148.69,67.31 -149.43,72.02"/>
    </edge>
    <edge id=":J11_21" function="internal">
        <lane id=":J11_21_0" index="0" speed="10.43" length="19.74" shape="-149.43,72.02 -149.73,73.87 -152.64,78.58 -157.44,81.42 -164.12,82.40"/>
    </edge>
    <edge id=":J11_15" function="internal">
        <lane id=":J11_15_0" index="0" speed="6.62" length="9.24" shape="-164.18,72.80 -161.63,72.43 -159.80,71.38 -158.68,69.63 -158.29,67.19"/>
    </edge>
    <edge id=":J11_16" function="internal">
        <lane id=":J11_16_0" index="0" speed="13.89" length="27.67" shape="-164.18,72.80 -155.48,73.22 -149.03,74.21 -143.29,75.16 -136.72,75.44"/>
        <lane id=":J11_16_1" index="1" speed="13.89" length="27.67" shape="-164.16,76.00 -155.43,76.42 -148.95,77.41 -143.19,78.36 -136.62,78.64"/>
    </edge>
    <edge id=":J11_18" function="internal">
        <lane id=":J11_18_0" index="0" speed="10.35" length="4.58" shape="-164.14,79.20 -159.60,79.82"/>
    </edge>
    <edge id=":J11_22" function="internal">
        <lane id=":J11_22_0" index="0" speed="10.35" length="20.02" shape="-159.60,79.82 -157.46,80.11 -152.68,82.95 -149.82,87.70 -148.88,94.38"/>
    </edge>
    <edge id=":J12_0" function="internal">
        <lane id=":J12_0_0" index="0" speed="6.47" length="9.08" shape="-135.60,-16.29 -138.07,-16.02 -139.84,-15.02 -140.92,-13.27 -141.31,-10.80"/>
    </edge>
    <edge id=":J12_1" function="internal">
        <lane id=":J12_1_0" index="0" speed="13.89" length="27.44" shape="-135.60,-16.29 -162.88,-16.56"/>
        <lane id=":J12_1_1" index="1" speed="13.89" length="27.44" shape="-135.49,-19.49 -162.93,-19.76"/>
        <lane id=":J12_1_2" index="2" speed="13.89" length="27.44" shape="-135.38,-22.69 -162.98,-22.96"/>
    </edge>
    <edge id=":J12_4" function="internal">
        <lane id=":J12_4_0" index="0" speed="10.59" length="4.37" shape="-135.38,-22.69 -139.68,-23.44"/>
    </edge>
    <edge id=":J12_20" function="internal">
        <lane id=":J12_20_0" index="0" speed="10.59" length="20.45" shape="-139.68,-23.44 -142.10,-23.86 -146.91,-26.85 -149.82,-31.66 -150.83,-38.28"/>
    </edge>
    <edge id=":J12_5" function="internal">
        <lane id=":J12_5_0" index="0" speed="6.86" length="9.81" shape="-141.23,-38.36 -140.83,-35.78 -139.66,-33.91 -137.73,-32.74 -135.04,-32.28"/>
    </edge>
    <edge id=":J12_6" function="internal">
        <lane id=":J12_6_0" index="0" speed="13.89" length="27.50" shape="-141.23,-38.36 -141.31,-10.80"/>
        <lane id=":J12_6_1" index="1" speed="13.89" length="27.50" shape="-144.43,-38.33 -144.51,-10.84"/>
        <lane id=":J12_6_2" index="2" speed="13.89" length="27.50" shape="-147.63,-38.31 -147.71,-10.88"/>
    </edge>
    <edge id=":J12_9" function="internal">
        <lane id=":J12_9_0" index="0" speed="10.43" length="5.27" shape="-147.63,-38.31 -148.36,-33.08"/>
    </edge>
    <edge id=":J12_21" function="internal">
        <lane id=":J12_21_0" index="0" speed="10.43" length="19.43" shape="-148.36,-33.08 -148.55,-31.68 -151.41,-26.91 -156.22,-24.01 -162.98,-22.96"/>
    </edge>
    <edge id=":J12_10" function="internal">
        <lane id=":J12_10_0" index="0" speed="6.61" length="9.31" shape="-163.12,-32.56 -160.53,-32.95 -158.68,-34.02 -157.59,-35.78 -157.23,-38.24"/>
    </edge>
    <edge id=":J12_11" function="internal">
        <lane id=":J12_11_0" index="0" speed="13.89" length="27.92" shape="-163.12,-32.56 -135.04,-32.28"/>
        <lane id=":J12_11_1" index="1" speed="13.89" length="27.92" shape="-163.07,-29.36 -135.15,-29.08"/>
        <lane id=":J12_11_2" index="2" speed="13.89" length="27.92" shape="-163.02,-26.16 -135.26,-25.88"/>
    </edge>
    <edge id=":J12_14" function="internal">
        <lane id=":J12_14_0" index="0" speed="10.32" length="6.03" shape="-163.02,-26.16 -157.04,-25.39"/>
    </edge>
    <edge id=":J12_22" function="internal">
        <lane id=":J12_22_0" index="0" speed="10.32" length="18.80" shape="-157.04,-25.39 -156.25,-25.29 -151.44,-22.46 -148.59,-17.65 -147.71,-10.88"/>
    </edge>
    <edge id=":J12_15" function="internal">
        <lane id=":J12_15_0" index="0" speed="6.45" length="9.03" shape="-157.30,-11.00 -157.63,-13.46 -158.66,-15.21 -160.41,-16.24 -162.88,-16.56"/>
    </edge>
    <edge id=":J12_16" function="internal">
        <lane id=":J12_16_0" index="0" speed="13.89" length="27.30" shape="-157.30,-11.00 -157.23,-38.24"/>
        <lane id=":J12_16_1" index="1" speed="13.89" length="27.30" shape="-154.10,-10.96 -154.03,-38.26"/>
        <lane id=":J12_16_2" index="2" speed="13.89" length="27.30" shape="-150.90,-10.92 -150.83,-38.28"/>
    </edge>
    <edge id=":J12_19" function="internal">
        <lane id=":J12_19_0" index="0" speed="10.34" length="4.69" shape="-150.90,-10.92 -150.18,-15.56"/>
    </edge>
    <edge id=":J12_23" function="internal">
        <lane id=":J12_23_0" index="0" speed="10.34" length="20.12" shape="-150.18,-15.56 -149.85,-17.67 -146.90,-22.41 -142.03,-25.15 -135.26,-25.88"/>
    </edge>
    <edge id=":J13_0" function="internal">
        <lane id=":J13_0_0" index="0" speed="13.89" length="14.46" shape="-157.70,-98.62 -157.79,-113.08"/>
        <lane id=":J13_0_1" index="1" speed="13.89" length="14.46" shape="-154.50,-98.64 -154.59,-113.10"/>
        <lane id=":J13_0_2" index="2" speed="13.89" length="14.46" shape="-151.30,-98.67 -151.39,-113.11"/>
    </edge>
    <edge id=":J13_3" function="internal">
        <lane id=":J13_3_0" index="0" speed="9.65" length="2.75" shape="-151.30,-98.67 -150.58,-101.33"/>
    </edge>
    <edge id=":J13_11" function="internal">
        <lane id=":J13_11_0" index="0" speed="9.65" length="16.75" shape="-150.58,-101.33 -150.37,-102.13 -147.51,-104.83 -142.73,-106.79 -136.02,-108.00"/>
    </edge>
    <edge id=":J13_4" function="internal">
        <lane id=":J13_4_0" index="0" speed="6.93" length="9.58" shape="-135.68,-104.86 -138.33,-104.22 -140.22,-102.99 -141.34,-101.16 -141.70,-98.74"/>
    </edge>
    <edge id=":J13_5" function="internal">
        <lane id=":J13_5_0" index="0" speed="9.76" length="23.40" shape="-135.68,-104.86 -143.93,-104.59 -149.84,-105.87 -153.39,-108.70 -154.59,-113.10"/>
        <lane id=":J13_5_1" index="1" speed="9.14" length="20.38" shape="-135.68,-104.86 -142.53,-104.72 -147.44,-106.05 -150.39,-108.85 -151.39,-113.11"/>
    </edge>
    <edge id=":J13_7" function="internal">
        <lane id=":J13_7_0" index="0" speed="6.29" length="9.04" shape="-141.79,-113.15 -141.42,-110.67 -140.33,-108.98 -138.53,-108.09 -136.02,-108.00"/>
    </edge>
    <edge id=":J13_8" function="internal">
        <lane id=":J13_8_0" index="0" speed="13.89" length="14.42" shape="-141.79,-113.15 -141.70,-98.74"/>
        <lane id=":J13_8_1" index="1" speed="13.89" length="14.42" shape="-144.99,-113.14 -144.90,-98.72"/>
        <lane id=":J13_8_2" index="2" speed="13.89" length="14.42" shape="-148.19,-113.13 -148.10,-98.69"/>
    </edge>
    <edge id=":J25_0" function="internal">
        <lane id=":J25_0_0" index="0" speed="6.82" length="9.78" shape="-158.53,-286.37 -158.91,-289.06 -160.02,-291.01 -161.87,-292.21 -164.45,-292.66"/>
    </edge>
    <edge id=":J25_1" function="internal">
        <lane id=":J25_1_0" index="0" speed="13.89" length="27.68" shape="-158.53,-286.37 -158.33,-314.12"/>
        <lane id=":J25_1_1" index="1" speed="13.89" length="27.68" shape="-155.33,-286.38 -155.13,-314.06"/>
        <lane id=":J25_1_2" index="2" speed="13.89" length="27.68" shape="-152.13,-286.40 -151.93,-314.00"/>
    </edge>
    <edge id=":J25_4" function="internal">
        <lane id=":J25_4_0" index="0" speed="10.32" length="5.42" shape="-152.13,-286.40 -151.38,-291.77"/>
    </edge>
    <edge id=":J25_20" function="internal">
        <lane id=":J25_20_0" index="0" speed="10.32" length="19.45" shape="-151.38,-291.77 -151.19,-293.18 -148.29,-297.96 -143.44,-300.74 -136.64,-301.53"/>
    </edge>
    <edge id=":J25_5" function="internal">
        <lane id=":J25_5_0" index="0" speed="6.44" length="9.03" shape="-136.91,-291.93 -139.38,-291.65 -141.14,-290.64 -142.19,-288.90 -142.53,-286.44"/>
    </edge>
    <edge id=":J25_6" function="internal">
        <lane id=":J25_6_0" index="0" speed="13.89" length="27.56" shape="-136.91,-291.93 -164.45,-292.66"/>
        <lane id=":J25_6_1" index="1" speed="13.89" length="27.56" shape="-136.82,-295.13 -164.37,-295.86"/>
        <lane id=":J25_6_2" index="2" speed="13.89" length="27.56" shape="-136.73,-298.33 -164.29,-299.06"/>
    </edge>
    <edge id=":J25_9" function="internal">
        <lane id=":J25_9_0" index="0" speed="10.46" length="5.06" shape="-136.73,-298.33 -141.73,-299.17"/>
    </edge>
    <edge id=":J25_21" function="internal">
        <lane id=":J25_21_0" index="0" speed="10.46" length="19.78" shape="-141.73,-299.17 -143.49,-299.47 -148.27,-302.46 -151.09,-307.30 -151.93,-314.00"/>
    </edge>
    <edge id=":J25_10" function="internal">
        <lane id=":J25_10_0" index="0" speed="6.66" length="9.45" shape="-142.33,-313.81 -142.00,-311.30 -140.92,-309.48 -139.07,-308.36 -136.47,-307.93"/>
    </edge>
    <edge id=":J25_11" function="internal">
        <lane id=":J25_11_0" index="0" speed="13.89" length="27.45" shape="-142.33,-313.81 -142.53,-286.44"/>
        <lane id=":J25_11_1" index="1" speed="13.89" length="27.45" shape="-145.53,-313.87 -145.73,-286.42"/>
        <lane id=":J25_11_2" index="2" speed="13.89" length="27.45" shape="-148.73,-313.94 -148.93,-286.41"/>
    </edge>
    <edge id=":J25_14" function="internal">
        <lane id=":J25_14_0" index="0" speed="10.35" length="4.63" shape="-148.73,-313.94 -149.47,-309.36"/>
    </edge>
    <edge id=":J25_22" function="internal">
        <lane id=":J25_22_0" index="0" speed="10.35" length="19.95" shape="-149.47,-309.36 -149.81,-307.28 -152.76,-302.58 -157.59,-299.84 -164.29,-299.06"/>
    </edge>
    <edge id=":J25_15" function="internal">
        <lane id=":J25_15_0" index="0" speed="6.49" length="9.03" shape="-164.04,-308.65 -161.58,-308.94 -159.81,-309.95 -158.72,-311.68 -158.33,-314.12"/>
    </edge>
    <edge id=":J25_16" function="internal">
        <lane id=":J25_16_0" index="0" speed="13.89" length="27.58" shape="-164.04,-308.65 -136.47,-307.93"/>
        <lane id=":J25_16_1" index="1" speed="13.89" length="27.58" shape="-164.12,-305.45 -136.56,-304.73"/>
        <lane id=":J25_16_2" index="2" speed="13.89" length="27.58" shape="-164.20,-302.26 -136.64,-301.53"/>
    </edge>
    <edge id=":J25_19" function="internal">
        <lane id=":J25_19_0" index="0" speed="10.56" length="4.99" shape="-164.20,-302.26 -159.28,-301.42"/>
    </edge>
    <edge id=":J25_23" function="internal">
        <lane id=":J25_23_0" index="0" speed="10.56" length="19.94" shape="-159.28,-301.42 -157.55,-301.12 -152.78,-298.10 -149.91,-293.20 -148.93,-286.41"/>
    </edge>
    <edge id=":J33_0" function="internal">
        <lane id=":J33_0_0" index="0" speed="5.78" length="9.16" shape="-56.00,-285.12 -58.52,-286.10 -60.38,-285.87 -61.60,-284.44 -62.18,-281.80"/>
    </edge>
    <edge id=":J33_1" function="internal">
        <lane id=":J33_1_0" index="0" speed="13.89" length="17.10" shape="-56.00,-285.12 -60.00,-287.44 -62.86,-288.93 -65.90,-289.77 -70.43,-290.12"/>
        <lane id=":J33_1_1" index="1" speed="13.89" length="17.10" shape="-54.45,-287.92 -58.85,-290.45 -62.00,-292.06 -65.35,-292.95 -70.35,-293.32"/>
        <lane id=":J33_1_2" index="2" speed="13.89" length="17.10" shape="-52.89,-290.72 -57.69,-293.46 -61.14,-295.19 -64.81,-296.13 -70.26,-296.52"/>
    </edge>
    <edge id=":J33_4" function="internal">
        <lane id=":J33_4_0" index="0" speed="13.89" length="21.73" shape="-70.00,-306.12 -63.18,-305.67 -58.57,-304.58 -54.24,-302.50 -48.23,-299.10"/>
        <lane id=":J33_4_1" index="1" speed="13.89" length="21.73" shape="-70.09,-302.92 -63.72,-302.49 -59.43,-301.45 -55.39,-299.48 -49.78,-296.30"/>
        <lane id=":J33_4_2" index="2" speed="13.89" length="21.73" shape="-70.17,-299.72 -64.27,-299.31 -60.29,-298.32 -56.54,-296.47 -51.34,-293.51"/>
    </edge>
    <edge id=":J33_7" function="internal">
        <lane id=":J33_7_0" index="0" speed="9.66" length="3.24" shape="-70.17,-299.72 -67.07,-298.78"/>
    </edge>
    <edge id=":J33_11" function="internal">
        <lane id=":J33_11_0" index="0" speed="9.66" length="18.73" shape="-67.07,-298.78 -66.17,-298.50 -63.50,-295.11 -62.17,-289.54 -62.18,-281.80"/>
    </edge>
    <edge id=":J33_8" function="internal">
        <lane id=":J33_8_0" index="0" speed="6.97" length="10.90" shape="-65.36,-282.04 -65.45,-285.52 -66.33,-288.02 -67.99,-289.56 -70.43,-290.12"/>
    </edge>
    <edge id=":J33_9" function="internal">
        <lane id=":J33_9_0" index="0" speed="9.41" length="26.61" shape="-65.36,-282.04 -63.99,-290.01 -61.08,-295.70 -56.42,-298.12 -49.78,-296.30"/>
        <lane id=":J33_9_1" index="1" speed="8.84" length="23.36" shape="-65.36,-282.04 -63.96,-289.69 -61.15,-294.15 -56.95,-295.42 -51.34,-293.51"/>
    </edge>
    <edge id=":J44_0" function="internal">
        <lane id=":J44_0_0" index="0" speed="7.07" length="9.52" shape="62.73,-246.20 62.24,-248.83 61.13,-250.79 59.39,-252.07 57.03,-252.68"/>
    </edge>
    <edge id=":J44_1" function="internal">
        <lane id=":J44_1_0" index="0" speed="9.85" length="22.98" shape="62.73,-246.20 62.84,-254.37 64.30,-260.21 67.10,-263.71 71.24,-264.89"/>
        <lane id=":J44_1_1" index="1" speed="9.23" length="20.04" shape="62.73,-246.20 62.91,-252.97 64.39,-257.81 67.17,-260.71 71.25,-261.69"/>
    </edge>
    <edge id=":J44_3" function="internal">
        <lane id=":J44_3_0" index="0" speed="6.39" length="9.04" shape="71.27,-252.09 68.80,-251.73 67.09,-250.66 66.13,-248.88 65.92,-246.39"/>
    </edge>
    <edge id=":J44_4" function="internal">
        <lane id=":J44_4_0" index="0" speed="13.89" length="13.94" shape="71.27,-252.09 67.04,-252.08 64.14,-252.11 61.25,-252.28 57.03,-252.68"/>
        <lane id=":J44_4_1" index="1" speed="13.89" length="13.94" shape="71.27,-255.29 67.13,-255.28 64.30,-255.31 61.47,-255.48 57.35,-255.86"/>
        <lane id=":J44_4_2" index="2" speed="13.89" length="13.94" shape="71.26,-258.49 67.22,-258.48 64.45,-258.51 61.69,-258.67 57.67,-259.04"/>
    </edge>
    <edge id=":J44_7" function="internal">
        <lane id=":J44_7_0" index="0" speed="13.89" length="12.96" shape="58.62,-268.59 62.35,-268.25 64.91,-268.10 67.48,-268.08 71.23,-268.09"/>
        <lane id=":J44_7_1" index="1" speed="13.89" length="12.96" shape="58.30,-265.41 62.13,-265.06 64.76,-264.90 67.39,-264.88 71.24,-264.89"/>
        <lane id=":J44_7_2" index="2" speed="13.89" length="12.96" shape="57.99,-262.23 61.91,-261.86 64.60,-261.71 67.30,-261.68 71.25,-261.69"/>
    </edge>
    <edge id=":J44_10" function="internal">
        <lane id=":J44_10_0" index="0" speed="9.78" length="2.59" shape="57.99,-262.23 60.39,-261.26"/>
    </edge>
    <edge id=":J44_11" function="internal">
        <lane id=":J44_11_0" index="0" speed="9.78" length="16.48" shape="60.39,-261.26 61.12,-260.97 63.48,-257.92 65.08,-253.06 65.92,-246.39"/>
    </edge>
    <edge id=":J45_0" function="internal">
        <lane id=":J45_0_0" index="0" speed="6.51" length="9.06" shape="173.31,-246.74 172.95,-249.21 171.90,-250.96 170.15,-252.02 167.70,-252.36"/>
    </edge>
    <edge id=":J45_1" function="internal">
        <lane id=":J45_1_0" index="0" speed="13.89" length="27.23" shape="173.31,-246.74 173.28,-273.98"/>
        <lane id=":J45_1_1" index="1" speed="13.89" length="27.23" shape="176.51,-246.75 176.48,-273.98"/>
        <lane id=":J45_1_2" index="2" speed="13.89" length="27.23" shape="179.71,-246.76 179.68,-273.98"/>
    </edge>
    <edge id=":J45_4" function="internal">
        <lane id=":J45_4_0" index="0" speed="10.36" length="5.05" shape="179.71,-246.76 180.41,-251.75"/>
    </edge>
    <edge id=":J45_20" function="internal">
        <lane id=":J45_20_0" index="0" speed="10.36" length="19.52" shape="180.41,-251.75 180.65,-253.42 183.50,-258.18 188.26,-261.03 194.92,-261.97"/>
    </edge>
    <edge id=":J45_5" function="internal">
        <lane id=":J45_5_0" index="0" speed="6.50" length="9.03" shape="194.90,-252.37 192.45,-252.02 190.70,-250.98 189.65,-249.23 189.31,-246.78"/>
    </edge>
    <edge id=":J45_6" function="internal">
        <lane id=":J45_6_0" index="0" speed="13.89" length="27.22" shape="194.90,-252.37 167.70,-252.36"/>
        <lane id=":J45_6_1" index="1" speed="13.89" length="27.22" shape="194.91,-255.57 167.69,-255.56"/>
        <lane id=":J45_6_2" index="2" speed="13.89" length="27.22" shape="194.92,-258.77 167.68,-258.76"/>
    </edge>
    <edge id=":J45_9" function="internal">
        <lane id=":J45_9_0" index="0" speed="10.38" length="4.95" shape="194.92,-258.77 190.02,-259.48"/>
    </edge>
    <edge id=":J45_21" function="internal">
        <lane id=":J45_21_0" index="0" speed="10.38" length="19.59" shape="190.02,-259.48 188.25,-259.73 183.49,-262.59 180.63,-267.34 179.68,-273.98"/>
    </edge>
    <edge id=":J45_10" function="internal">
        <lane id=":J45_10_0" index="0" speed="6.53" length="9.08" shape="189.28,-273.98 189.63,-271.53 190.69,-269.78 192.46,-268.73 194.94,-268.37"/>
    </edge>
    <edge id=":J45_11" function="internal">
        <lane id=":J45_11_0" index="0" speed="13.89" length="27.21" shape="189.28,-273.98 189.31,-246.78"/>
        <lane id=":J45_11_1" index="1" speed="13.89" length="27.21" shape="186.08,-273.98 186.11,-246.77"/>
        <lane id=":J45_11_2" index="2" speed="13.89" length="27.21" shape="182.88,-273.98 182.91,-246.76"/>
    </edge>
    <edge id=":J45_14" function="internal">
        <lane id=":J45_14_0" index="0" speed="10.37" length="4.97" shape="182.88,-273.98 182.18,-269.06"/>
    </edge>
    <edge id=":J45_22" function="internal">
        <lane id=":J45_22_0" index="0" speed="10.37" length="19.54" shape="182.18,-269.06 181.93,-267.34 179.08,-262.59 174.33,-259.73 167.68,-258.76"/>
    </edge>
    <edge id=":J45_15" function="internal">
        <lane id=":J45_15_0" index="0" speed="6.52" length="9.06" shape="167.65,-268.36 170.11,-268.72 171.87,-269.77 172.93,-271.53 173.28,-273.98"/>
    </edge>
    <edge id=":J45_16" function="internal">
        <lane id=":J45_16_0" index="0" speed="13.89" length="27.27" shape="167.65,-268.36 194.94,-268.37"/>
        <lane id=":J45_16_1" index="1" speed="13.89" length="27.27" shape="167.66,-265.16 194.93,-265.17"/>
        <lane id=":J45_16_2" index="2" speed="13.89" length="27.27" shape="167.67,-261.96 194.92,-261.97"/>
    </edge>
    <edge id=":J45_19" function="internal">
        <lane id=":J45_19_0" index="0" speed="10.37" length="5.09" shape="167.67,-261.96 172.71,-261.25"/>
    </edge>
    <edge id=":J45_23" function="internal">
        <lane id=":J45_23_0" index="0" speed="10.37" length="19.46" shape="172.71,-261.25 174.32,-261.03 179.08,-258.18 181.94,-253.43 182.91,-246.76"/>
    </edge>
    <edge id=":J52_0" function="internal">
        <lane id=":J52_0_0" index="0" speed="8.39" length="12.93" shape="52.22,-9.04 49.40,-8.80 46.95,-7.42 44.89,-4.90 43.20,-1.24"/>
    </edge>
    <edge id=":J52_1" function="internal">
        <lane id=":J52_1_0" index="0" speed="13.89" length="22.43" shape="52.22,-9.04 30.07,-10.47"/>
        <lane id=":J52_1_1" index="1" speed="13.89" length="22.43" shape="52.57,-12.22 30.19,-13.66"/>
        <lane id=":J52_1_2" index="2" speed="13.89" length="22.43" shape="52.92,-15.40 30.30,-16.86"/>
    </edge>
    <edge id=":J52_4" function="internal">
        <lane id=":J52_4_0" index="0" speed="9.04" length="2.86" shape="52.92,-15.40 50.21,-16.30"/>
    </edge>
    <edge id=":J52_17" function="internal">
        <lane id=":J52_17_0" index="0" speed="9.04" length="18.23" shape="50.21,-16.30 48.41,-16.90 45.88,-20.20 45.33,-25.30 46.76,-32.21"/>
    </edge>
    <edge id=":J52_5" function="internal">
        <lane id=":J52_5_0" index="0" speed="6.13" length="9.06" shape="49.81,-31.26 49.42,-28.74 49.97,-26.84 51.49,-25.58 53.96,-24.94"/>
    </edge>
    <edge id=":J52_6" function="internal">
        <lane id=":J52_6_0" index="0" speed="11.20" length="30.63" shape="49.81,-31.26 43.20,-1.24"/>
        <lane id=":J52_6_1" index="1" speed="11.20" length="30.63" shape="49.81,-31.26 40.19,-2.30"/>
    </edge>
    <edge id=":J52_8" function="internal">
        <lane id=":J52_8_0" index="0" speed="11.20" length="8.90" shape="49.81,-31.26 46.86,-24.76 45.66,-23.47"/>
    </edge>
    <edge id=":J52_18" function="internal">
        <lane id=":J52_18_0" index="0" speed="11.20" length="17.42" shape="45.66,-23.47 42.63,-20.20 37.11,-17.57 30.30,-16.86"/>
    </edge>
    <edge id=":J52_9" function="internal">
        <lane id=":J52_9_0" index="0" speed="10.01" length="18.20" shape="30.64,-26.46 36.96,-26.63 41.76,-27.64 45.02,-29.50 46.76,-32.21"/>
    </edge>
    <edge id=":J52_10" function="internal">
        <lane id=":J52_10_0" index="0" speed="13.89" length="23.14" shape="30.64,-26.46 53.96,-24.94"/>
        <lane id=":J52_10_1" index="1" speed="13.89" length="23.14" shape="30.52,-23.26 53.61,-21.76"/>
        <lane id=":J52_10_2" index="2" speed="13.89" length="23.14" shape="30.41,-20.06 53.27,-18.58"/>
    </edge>
    <edge id=":J52_13" function="internal">
        <lane id=":J52_13_0" index="0" speed="9.49" length="5.29" shape="30.41,-20.06 35.60,-19.02"/>
    </edge>
    <edge id=":J52_19" function="internal">
        <lane id=":J52_19_0" index="0" speed="9.49" length="19.83" shape="35.60,-19.02 36.97,-18.74 40.78,-15.34 41.86,-9.86 40.19,-2.30"/>
    </edge>
    <edge id=":J52_14" function="internal">
        <lane id=":J52_14_0" index="0" speed="5.96" length="9.09" shape="34.20,-4.42 34.71,-6.98 34.19,-8.85 32.65,-10.01 30.07,-10.47"/>
    </edge>
    <edge id=":J52_15" function="internal">
        <lane id=":J52_15_0" index="0" speed="11.20" length="30.51" shape="34.20,-4.42 37.35,-12.07 41.16,-20.06 44.64,-27.18 46.76,-32.21"/>
    </edge>
    <edge id=":J52_16" function="internal">
        <lane id=":J52_16_0" index="0" speed="11.22" length="6.70" shape="37.22,-3.35 39.94,-9.47"/>
    </edge>
    <edge id=":J52_20" function="internal">
        <lane id=":J52_20_0" index="0" speed="11.22" length="17.20" shape="39.94,-9.47 40.37,-10.44 44.09,-15.34 48.39,-18.05 53.27,-18.58"/>
    </edge>
    <edge id=":J54_0" function="internal">
        <lane id=":J54_0_0" index="0" speed="6.73" length="9.27" shape="173.65,-162.61 173.22,-165.03 172.09,-166.79 170.25,-167.88 167.70,-168.32"/>
    </edge>
    <edge id=":J54_1" function="internal">
        <lane id=":J54_1_0" index="0" speed="13.89" length="14.29" shape="173.65,-162.61 173.45,-176.98"/>
        <lane id=":J54_1_1" index="1" speed="13.89" length="14.29" shape="176.85,-162.70 176.65,-176.98"/>
        <lane id=":J54_1_2" index="2" speed="13.89" length="14.29" shape="180.04,-162.78 179.85,-176.99"/>
    </edge>
    <edge id=":J54_4" function="internal">
        <lane id=":J54_4_0" index="0" speed="13.89" length="14.06" shape="189.45,-177.01 189.64,-163.03"/>
        <lane id=":J54_4_1" index="1" speed="13.89" length="14.06" shape="186.25,-177.01 186.44,-162.95"/>
        <lane id=":J54_4_2" index="2" speed="13.89" length="14.06" shape="183.05,-177.00 183.24,-162.86"/>
    </edge>
    <edge id=":J54_7" function="internal">
        <lane id=":J54_7_0" index="0" speed="9.26" length="2.97" shape="183.05,-177.00 182.37,-174.11"/>
    </edge>
    <edge id=":J54_11" function="internal">
        <lane id=":J54_11_0" index="0" speed="9.26" length="16.92" shape="182.37,-174.11 182.10,-173.00 179.22,-170.22 174.42,-168.66 167.70,-168.32"/>
    </edge>
    <edge id=":J54_8" function="internal">
        <lane id=":J54_8_0" index="0" speed="6.43" length="9.03" shape="167.81,-171.51 170.28,-171.78 172.05,-172.78 173.11,-174.51 173.45,-176.98"/>
    </edge>
    <edge id=":J54_9" function="internal">
        <lane id=":J54_9_0" index="0" speed="10.12" length="22.24" shape="167.81,-171.51 175.88,-170.74 181.68,-169.05 185.20,-166.46 186.44,-162.95"/>
        <lane id=":J54_9_1" index="1" speed="9.50" length="19.47" shape="167.81,-171.51 174.48,-170.78 179.28,-169.09 182.20,-166.45 183.24,-162.86"/>
    </edge>
    <edge id=":J55_0" function="internal">
        <lane id=":J55_0_0" index="0" speed="7.05" length="9.75" shape="176.17,-63.08 175.76,-65.49 174.57,-67.32 172.61,-68.55 169.87,-69.20"/>
    </edge>
    <edge id=":J55_1" function="internal">
        <lane id=":J55_1_0" index="0" speed="13.89" length="14.54" shape="176.17,-63.08 175.89,-77.56"/>
        <lane id=":J55_1_1" index="1" speed="13.89" length="14.54" shape="179.37,-63.11 179.09,-77.64"/>
        <lane id=":J55_1_2" index="2" speed="13.89" length="14.54" shape="182.57,-63.14 182.28,-77.73"/>
    </edge>
    <edge id=":J55_4" function="internal">
        <lane id=":J55_4_0" index="0" speed="13.89" length="14.69" shape="191.88,-77.98 192.17,-63.24"/>
        <lane id=":J55_4_1" index="1" speed="13.89" length="14.69" shape="188.68,-77.90 188.97,-63.20"/>
        <lane id=":J55_4_2" index="2" speed="13.89" length="14.69" shape="185.48,-77.81 185.77,-63.17"/>
    </edge>
    <edge id=":J55_7" function="internal">
        <lane id=":J55_7_0" index="0" speed="9.10" length="3.40" shape="185.48,-77.81 184.83,-74.47"/>
    </edge>
    <edge id=":J55_11" function="internal">
        <lane id=":J55_11_0" index="0" speed="9.10" length="17.27" shape="184.83,-74.47 184.61,-73.37 181.72,-70.45 176.81,-69.06 169.87,-69.20"/>
    </edge>
    <edge id=":J55_8" function="internal">
        <lane id=":J55_8_0" index="0" speed="6.22" length="9.05" shape="170.24,-72.38 172.77,-72.46 174.55,-73.35 175.59,-75.05 175.89,-77.56"/>
    </edge>
    <edge id=":J55_9" function="internal">
        <lane id=":J55_9_0" index="0" speed="10.38" length="22.27" shape="170.24,-72.38 178.41,-71.01 184.25,-69.02 187.77,-66.42 188.97,-63.20"/>