<?xml version="1.0" encoding="UTF-8"?>

<!-- generated on 2023-12-17 16:37:45 by Eclipse SUMO netedit Version 1.18.0
<configuration xmlns:xsi="http://www.w3.org/2001/XMLSchema-instance" xsi:noNamespaceSchemaLocation="http://sumo.dlr.de/xsd/neteditConfiguration.xsd">

    <input>
        <sumo-net-file value="C:\Users\chuny\Desktop\OSM_RandomTrips\debug.net.xml"/>
    </input>

    <output>
        <output-file value="C:\Users\chuny\Desktop\OSM_RandomTrips\debug.net.xml"/>
    </output>

    <processing>
        <offset.disable-normalization value="true"/>
    </processing>

    <junctions>
        <no-turnarounds value="true"/>
    </junctions>

    <netedit>
        <new-network value="false"/>
    </netedit>

</configuration>
-->

<net version="1.16" junctionCornerDetail="5" limitTurnSpeed="5.50" xmlns:xsi="http://www.w3.org/2001/XMLSchema-instance" xsi:noNamespaceSchemaLocation="http://sumo.dlr.de/xsd/net_file.xsd">

    <location netOffset="0.00,0.00" convBoundary="-300.00,-100.00,700.00,300.00" origBoundary="10000000000.00,10000000000.00,-10000000000.00,-10000000000.00" projParameter="!"/>

    <edge id=":J19_0" function="internal">
        <lane id=":J19_0_0" index="0" speed="6.51" length="9.03" shape="-201.60,107.20 -201.95,104.75 -203.00,103.00 -204.75,101.95 -207.20,101.60"/>
    </edge>
    <edge id=":J19_1" function="internal">
        <lane id=":J19_1_0" index="0" speed="13.89" length="14.40" shape="-201.60,107.20 -201.60,92.80"/>
    </edge>
    <edge id=":J19_2" function="internal">
        <lane id=":J19_2_0" index="0" speed="8.00" length="4.07" shape="-201.60,107.20 -201.05,103.35 -200.96,103.20"/>
    </edge>
    <edge id=":J19_12" function="internal">
        <lane id=":J19_12_0" index="0" speed="8.00" length="10.13" shape="-200.96,103.20 -199.40,100.60 -196.65,98.95 -192.80,98.40"/>
    </edge>
    <edge id=":J19_3" function="internal">
        <lane id=":J19_3_0" index="0" speed="6.51" length="9.03" shape="-192.80,101.60 -195.25,101.95 -197.00,103.00 -198.05,104.75 -198.40,107.20"/>
    </edge>
    <edge id=":J19_4" function="internal">
        <lane id=":J19_4_0" index="0" speed="13.89" length="14.40" shape="-192.80,101.60 -207.20,101.60"/>
    </edge>
    <edge id=":J19_5" function="internal">
        <lane id=":J19_5_0" index="0" speed="8.00" length="4.07" shape="-192.80,101.60 -196.65,101.05 -196.80,100.96"/>
    </edge>
    <edge id=":J19_13" function="internal">
        <lane id=":J19_13_0" index="0" speed="8.00" length="10.13" shape="-196.80,100.96 -199.40,99.40 -201.05,96.65 -201.60,92.80"/>
    </edge>
    <edge id=":J19_6" function="internal">
        <lane id=":J19_6_0" index="0" speed="6.51" length="9.03" shape="-198.40,92.80 -198.05,95.25 -197.00,97.00 -195.25,98.05 -192.80,98.40"/>
    </edge>
    <edge id=":J19_7" function="internal">
        <lane id=":J19_7_0" index="0" speed="13.89" length="14.40" shape="-198.40,92.80 -198.40,107.20"/>
    </edge>
    <edge id=":J19_8" function="internal">
        <lane id=":J19_8_0" index="0" speed="8.00" length="4.07" shape="-198.40,92.80 -198.95,96.65 -199.04,96.80"/>
    </edge>
    <edge id=":J19_14" function="internal">
        <lane id=":J19_14_0" index="0" speed="8.00" length="10.13" shape="-199.04,96.80 -200.60,99.40 -203.35,101.05 -207.20,101.60"/>
    </edge>
    <edge id=":J19_9" function="internal">
        <lane id=":J19_9_0" index="0" speed="6.51" length="9.03" shape="-207.20,98.40 -204.75,98.05 -203.00,97.00 -201.95,95.25 -201.60,92.80"/>
    </edge>
    <edge id=":J19_10" function="internal">
        <lane id=":J19_10_0" index="0" speed="13.89" length="14.40" shape="-207.20,98.40 -192.80,98.40"/>
    </edge>
    <edge id=":J19_11" function="internal">
        <lane id=":J19_11_0" index="0" speed="8.00" length="4.07" shape="-207.20,98.40 -203.35,98.95 -203.20,99.04"/>
    </edge>
    <edge id=":J19_15" function="internal">
        <lane id=":J19_15_0" index="0" speed="8.00" length="10.13" shape="-203.20,99.04 -200.60,100.60 -198.95,103.35 -198.40,107.20"/>
    </edge>
    <edge id=":J22_0" function="internal">
        <lane id=":J22_0_0" index="0" speed="6.51" length="9.03" shape="-1.60,107.20 -1.95,104.75 -3.00,103.00 -4.75,101.95 -7.20,101.60"/>
    </edge>
    <edge id=":J22_1" function="internal">
        <lane id=":J22_1_0" index="0" speed="13.89" length="14.40" shape="-1.60,107.20 -1.60,92.80"/>
    </edge>
    <edge id=":J22_2" function="internal">
        <lane id=":J22_2_0" index="0" speed="8.00" length="4.07" shape="-1.60,107.20 -1.05,103.35 -0.96,103.20"/>
    </edge>
    <edge id=":J22_12" function="internal">
        <lane id=":J22_12_0" index="0" speed="8.00" length="10.13" shape="-0.96,103.20 0.60,100.60 3.35,98.95 7.20,98.40"/>
    </edge>
    <edge id=":J22_3" function="internal">
        <lane id=":J22_3_0" index="0" speed="6.51" length="9.03" shape="7.20,101.60 4.75,101.95 3.00,103.00 1.95,104.75 1.60,107.20"/>
    </edge>
    <edge id=":J22_4" function="internal">
        <lane id=":J22_4_0" index="0" speed="13.89" length="14.40" shape="7.20,101.60 -7.20,101.60"/>
    </edge>
    <edge id=":J22_5" function="internal">
        <lane id=":J22_5_0" index="0" speed="8.00" length="4.07" shape="7.20,101.60 3.35,101.05 3.20,100.96"/>
    </edge>
    <edge id=":J22_13" function="internal">
        <lane id=":J22_13_0" index="0" speed="8.00" length="10.13" shape="3.20,100.96 0.60,99.40 -1.05,96.65 -1.60,92.80"/>
    </edge>
    <edge id=":J22_6" function="internal">
        <lane id=":J22_6_0" index="0" speed="6.51" length="9.03" shape="1.60,92.80 1.95,95.25 3.00,97.00 4.75,98.05 7.20,98.40"/>
    </edge>
    <edge id=":J22_7" function="internal">
        <lane id=":J22_7_0" index="0" speed="13.89" length="14.40" shape="1.60,92.80 1.60,107.20"/>
    </edge>
    <edge id=":J22_8" function="internal">
        <lane id=":J22_8_0" index="0" speed="8.00" length="4.07" shape="1.60,92.80 1.05,96.65 0.96,96.80"/>
    </edge>
    <edge id=":J22_14" function="internal">
        <lane id=":J22_14_0" index="0" speed="8.00" length="10.13" shape="0.96,96.80 -0.60,99.40 -3.35,101.05 -7.20,101.60"/>
    </edge>
    <edge id=":J22_9" function="internal">
        <lane id=":J22_9_0" index="0" speed="6.51" length="9.03" shape="-7.20,98.40 -4.75,98.05 -3.00,97.00 -1.95,95.25 -1.60,92.80"/>
    </edge>
    <edge id=":J22_10" function="internal">
        <lane id=":J22_10_0" index="0" speed="13.89" length="14.40" shape="-7.20,98.40 7.20,98.40"/>
    </edge>
    <edge id=":J22_11" function="internal">
        <lane id=":J22_11_0" index="0" speed="8.00" length="4.07" shape="-7.20,98.40 -3.35,98.95 -3.20,99.04"/>
    </edge>
    <edge id=":J22_15" function="internal">
        <lane id=":J22_15_0" index="0" speed="8.00" length="10.13" shape="-3.20,99.04 -0.60,100.60 1.05,103.35 1.60,107.20"/>
    </edge>
    <edge id=":J25_0" function="internal">
        <lane id=":J25_0_0" index="0" speed="6.51" length="9.03" shape="498.40,107.20 498.05,104.75 497.00,103.00 495.25,101.95 492.80,101.60"/>
    </edge>
    <edge id=":J25_1" function="internal">
        <lane id=":J25_1_0" index="0" speed="13.89" length="14.40" shape="498.40,107.20 498.40,92.80"/>
    </edge>
    <edge id=":J25_2" function="internal">
        <lane id=":J25_2_0" index="0" speed="8.00" length="4.07" shape="498.40,107.20 498.95,103.35 499.04,103.20"/>
    </edge>
    <edge id=":J25_12" function="internal">
        <lane id=":J25_12_0" index="0" speed="8.00" length="10.13" shape="499.04,103.20 500.60,100.60 503.35,98.95 507.20,98.40"/>
    </edge>
    <edge id=":J25_3" function="internal">
        <lane id=":J25_3_0" index="0" speed="6.51" length="9.03" shape="507.20,101.60 504.75,101.95 503.00,103.00 501.95,104.75 501.60,107.20"/>
    </edge>
    <edge id=":J25_4" function="internal">
        <lane id=":J25_4_0" index="0" speed="13.89" length="14.40" shape="507.20,101.60 492.80,101.60"/>
    </edge>
    <edge id=":J25_5" function="internal">
        <lane id=":J25_5_0" index="0" speed="8.00" length="14.19" shape="507.20,101.60 503.35,101.05 500.60,99.40 498.95,96.65 498.40,92.80"/>
    </edge>
    <edge id=":J25_6" function="internal">
        <lane id=":J25_6_0" index="0" speed="6.51" length="9.03" shape="501.60,92.80 501.95,95.25 503.00,97.00 504.75,98.05 507.20,98.40"/>
    </edge>
    <edge id=":J25_7" function="internal">
        <lane id=":J25_7_0" index="0" speed="13.89" length="14.40" shape="501.60,92.80 501.60,107.20"/>
    </edge>
    <edge id=":J25_8" function="internal">
        <lane id=":J25_8_0" index="0" speed="8.00" length="4.07" shape="501.60,92.80 501.05,96.65 500.96,96.80"/>
    </edge>
    <edge id=":J25_13" function="internal">
        <lane id=":J25_13_0" index="0" speed="8.00" length="10.13" shape="500.96,96.80 499.40,99.40 496.65,101.05 492.80,101.60"/>
    </edge>
    <edge id=":J25_9" function="internal">
        <lane id=":J25_9_0" index="0" speed="6.51" length="9.03" shape="492.80,98.40 495.25,98.05 497.00,97.00 498.05,95.25 498.40,92.80"/>
    </edge>
    <edge id=":J25_10" function="internal">
        <lane id=":J25_10_0" index="0" speed="13.89" length="14.40" shape="492.80,98.40 507.20,98.40"/>
    </edge>
    <edge id=":J25_11" function="internal">
        <lane id=":J25_11_0" index="0" speed="8.00" length="14.19" shape="492.80,98.40 496.65,98.95 499.40,100.60 501.05,103.35 501.60,107.20"/>
    </edge>

    <edge id="-E13" from="J20" to="J19" priority="-1">
        <lane id="-E13_0" index="0" speed="13.89" length="192.80" shape="-201.60,300.00 -201.60,107.20"/>
    </edge>
    <edge id="-E14" from="J21" to="J19" priority="-1">
        <lane id="-E14_0" index="0" speed="13.89" length="192.80" shape="-198.40,-100.00 -198.40,92.80"/>
    </edge>
    <edge id="-E15" from="J22" to="J19" priority="-1">
        <lane id="-E15_0" index="0" speed="13.89" length="185.60" shape="-7.20,101.60 -192.80,101.60"/>
    </edge>
    <edge id="-E16" from="J23" to="J22" priority="-1">
        <lane id="-E16_0" index="0" speed="13.89" length="192.80" shape="-1.60,300.00 -1.60,107.20"/>
    </edge>
    <edge id="-E17" from="J24" to="J22" priority="-1">
        <lane id="-E17_0" index="0" speed="13.89" length="192.80" shape="1.60,-100.00 1.60,92.80"/>
    </edge>
    <edge id="-E18" from="J25" to="J22" priority="-1">
        <lane id="-E18_0" index="0" speed="13.89" length="485.60" shape="492.80,101.60 7.20,101.60"/>
    </edge>
    <edge id="-E19" from="J26" to="J25" priority="-1">
        <lane id="-E19_0" index="0" speed="13.89" length="192.80" shape="498.40,300.00 498.40,107.20"/>
    </edge>
    <edge id="-E20" from="J27" to="J25" priority="-1">
        <lane id="-E20_0" index="0" speed="13.89" length="192.80" shape="501.60,-100.00 501.60,92.80"/>
    </edge>
    <edge id="-E21" from="J28" to="J25" priority="-1">
        <lane id="-E21_0" index="0" speed="13.89" length="192.80" shape="700.00,101.60 507.20,101.60"/>
    </edge>
    <edge id="-E22" from="J29" to="J19" priority="-1">
        <lane id="-E22_0" index="0" speed="13.89" length="92.80" shape="-300.00,98.40 -207.20,98.40"/>
    </edge>
    <edge id="E13" from="J19" to="J20" priority="-1">
        <lane id="E13_0" index="0" speed="13.89" length="192.80" shape="-198.40,107.20 -198.40,300.00"/>
    </edge>
    <edge id="E14" from="J19" to="J21" priority="-1">
        <lane id="E14_0" index="0" speed="13.89" length="192.80" shape="-201.60,92.80 -201.60,-100.00"/>
    </edge>
    <edge id="E15" from="J19" to="J22" priority="-1">
        <lane id="E15_0" index="0" speed="13.89" length="185.60" shape="-192.80,98.40 -7.20,98.40"/>
    </edge>
    <edge id="E16" from="J22" to="J23" priority="-1">
        <lane id="E16_0" index="0" speed="13.89" length="192.80" shape="1.60,107.20 1.60,300.00"/>
    </edge>
    <edge id="E17" from="J22" to="J24" priority="-1">
        <lane id="E17_0" index="0" speed="13.89" length="192.80" shape="-1.60,92.80 -1.60,-100.00"/>
    </edge>
    <edge id="E18" from="J22" to="J25" priority="-1">
        <lane id="E18_0" index="0" speed="13.89" length="485.60" shape="7.20,98.40 492.80,98.40"/>
    </edge>
    <edge id="E19" from="J25" to="J26" priority="-1">
        <lane id="E19_0" index="0" speed="13.89" length="192.80" shape="501.60,107.20 501.60,300.00"/>
    </edge>
    <edge id="E20" from="J25" to="J27" priority="-1">
        <lane id="E20_0" index="0" speed="13.89" length="192.80" shape="498.40,92.80 498.40,-100.00"/>
    </edge>
    <edge id="E21" from="J25" to="J28" priority="-1">
        <lane id="E21_0" index="0" speed="13.89" length="192.80" shape="507.20,98.40 700.00,98.40"/>
    </edge>
    <edge id="E22" from="J19" to="J29" priority="-1">
        <lane id="E22_0" index="0" speed="13.89" length="92.80" shape="-207.20,101.60 -300.00,101.60"/>
    </edge>

    <tlLogic id="J19" type="static" programID="0" offset="0">
        <phase duration="42" state="GGgrrrGGgrrr"/>
        <phase duration="3"  state="yyyrrryyyrrr"/>
        <phase duration="42" state="rrrGGgrrrGGg"/>
        <phase duration="3"  state="rrryyyrrryyy"/>
    </tlLogic>
    <tlLogic id="J22" type="static" programID="0" offset="0">
        <phase duration="42" state="GGgrrrGGgrrr"/>
        <phase duration="3"  state="yyyrrryyyrrr"/>
        <phase duration="42" state="rrrGGgrrrGGg"/>
        <phase duration="3"  state="rrryyyrrryyy"/>
    </tlLogic>

    <junction id="J19" type="traffic_light" x="-200.00" y="100.00" incLanes="-E13_0 -E15_0 -E14_0 -E22_0" intLanes=":J19_0_0 :J19_1_0 :J19_12_0 :J19_3_0 :J19_4_0 :J19_13_0 :J19_6_0 :J19_7_0 :J19_14_0 :J19_9_0 :J19_10_0 :J19_15_0" shape="-203.20,107.20 -196.80,107.20 -196.36,104.98 -195.80,104.20 -195.02,103.64 -194.02,103.31 -192.80,103.20 -192.80,96.80 -195.02,96.36 -195.80,95.80 -196.36,95.02 -196.69,94.02 -196.80,92.80 -203.20,92.80 -203.64,95.02 -204.20,95.80 -204.98,96.36 -205.98,96.69 -207.20,96.80 -207.20,103.20 -204.98,103.64 -204.20,104.20 -203.64,104.98 -203.31,105.98">
        <request index="0"  response="000000000000" foes="000100010000" cont="0"/>
        <request index="1"  response="100000100000" foes="111100110000" cont="0"/>
        <request index="2"  response="100111100000" foes="110111110000" cont="1"/>
        <request index="3"  response="000010000000" foes="100010000000" cont="0"/>
        <request index="4"  response="000110000111" foes="100110000111" cont="0"/>
        <request index="5"  response="111110000110" foes="111110000110" cont="1"/>
        <request index="6"  response="000000000000" foes="010000000100" cont="0"/>
        <request index="7"  response="100000100000" foes="110000111100" cont="0"/>
        <request index="8"  response="100000100011" foes="110000110111" cont="1"/>
        <request index="9"  response="000000000010" foes="000000100010" cont="0"/>
        <request index="10" response="000111000110" foes="000111100110" cont="0"/>
        <request index="11" response="000110011110" foes="000110111110" cont="1"/>
    </junction>
    <junction id="J20" type="dead_end" x="-200.00" y="300.00" incLanes="E13_0" intLanes="" shape="-200.00,300.00 -196.80,300.00 -200.00,300.00"/>
    <junction id="J21" type="dead_end" x="-200.00" y="-100.00" incLanes="E14_0" intLanes="" shape="-200.00,-100.00 -203.20,-100.00 -200.00,-100.00"/>
    <junction id="J22" type="traffic_light" x="0.00" y="100.00" incLanes="-E16_0 -E18_0 -E17_0 E15_0" intLanes=":J22_0_0 :J22_1_0 :J22_12_0 :J22_3_0 :J22_4_0 :J22_13_0 :J22_6_0 :J22_7_0 :J22_14_0 :J22_9_0 :J22_10_0 :J22_15_0" shape="-3.20,107.20 3.20,107.20 3.64,104.98 4.20,104.20 4.98,103.64 5.98,103.31 7.20,103.20 7.20,96.80 4.98,96.36 4.20,95.80 3.64,95.02 3.31,94.02 3.20,92.80 -3.20,92.80 -3.64,95.02 -4.20,95.80 -4.98,96.36 -5.98,96.69 -7.20,96.80 -7.20,103.20 -4.98,103.64 -4.20,104.20 -3.64,104.98 -3.31,105.98">
        <request index="0"  response="000000000000" foes="000100010000" cont="0"/>
        <request index="1"  response="100000100000" foes="111100110000" cont="0"/>
        <request index="2"  response="100111100000" foes="110111110000" cont="1"/>
        <request index="3"  response="000010000000" foes="100010000000" cont="0"/>
        <request index="4"  response="000110000111" foes="100110000111" cont="0"/>
        <request index="5"  response="111110000110" foes="111110000110" cont="1"/>
        <request index="6"  response="000000000000" foes="010000000100" cont="0"/>
        <request index="7"  response="100000100000" foes="110000111100" cont="0"/>
        <request index="8"  response="100000100011" foes="110000110111" cont="1"/>
        <request index="9"  response="000000000010" foes="000000100010" cont="0"/>
        <request index="10" response="000111000110" foes="000111100110" cont="0"/>
        <request index="11" response="000110011110" foes="000110111110" cont="1"/>
    </junction>
    <junction id="J23" type="dead_end" x="0.00" y="300.00" incLanes="E16_0" intLanes="" shape="0.00,300.00 3.20,300.00 0.00,300.00"/>
    <junction id="J24" type="dead_end" x="0.00" y="-100.00" incLanes="E17_0" intLanes="" shape="0.00,-100.00 -3.20,-100.00 0.00,-100.00"/>
    <junction id="J25" type="traffic_light" x="500.00" y="100.00" incLanes="-E19_0 -E21_0 -E20_0 E18_0" intLanes=":J25_0_0 :J25_1_0 :J25_12_0 :J25_3_0 :J25_4_0 :J25_5_0 :J25_6_0 :J25_7_0 :J25_13_0 :J25_9_0 :J25_10_0 :J25_11_0" shape="496.80,107.20 503.20,107.20 503.64,104.98 504.20,104.20 504.98,103.64 505.98,103.31 507.20,103.20 507.20,96.80 504.98,96.36 504.20,95.80 503.64,95.02 503.31,94.02 503.20,92.80 496.80,92.80 496.36,95.02 495.80,95.80 495.02,96.36 494.02,96.69 492.80,96.80 492.80,103.20 495.02,103.64 495.80,104.20 496.36,104.98 496.69,105.98">
        <request index="0"  response="000000000000" foes="000100010000" cont="0"/>
        <request index="1"  response="000000000000" foes="111100110000" cont="0"/>
        <request index="2"  response="000111000000" foes="110111110000" cont="1"/>
        <request index="3"  response="000010000000" foes="100010000000" cont="0"/>
        <request index="4"  response="000110000111" foes="100110000111" cont="0"/>
        <request index="5"  response="111110000110" foes="111110000110" cont="0"/>
        <request index="6"  response="000000000000" foes="010000000100" cont="0"/>
        <request index="7"  response="000000000000" foes="110000111100" cont="0"/>
        <request index="8"  response="000000000011" foes="110000110111" cont="1"/>
        <request index="9"  response="000000000010" foes="000000100010" cont="0"/>
        <request index="10" response="000111000110" foes="000111100110" cont="0"/>
        <request index="11" response="000110011110" foes="000110111110" cont="0"/>
    </junction>
    <junction id="J26" type="dead_end" x="500.00" y="300.00" incLanes="E19_0" intLanes="" shape="500.00,300.00 503.20,300.00 500.00,300.00"/>
    <junction id="J27" type="dead_end" x="500.00" y="-100.00" incLanes="E20_0" intLanes="" shape="500.00,-100.00 496.80,-100.00 500.00,-100.00"/>
    <junction id="J28" type="dead_end" x="700.00" y="100.00" incLanes="E21_0" intLanes="" shape="700.00,100.00 700.00,96.80 700.00,100.00"/>
    <junction id="J29" type="dead_end" x="-300.00" y="100.00" incLanes="E22_0" intLanes="" shape="-300.00,100.00 -300.00,103.20 -300.00,100.00"/>

    <junction id=":J19_12_0" type="internal" x="-200.96" y="103.20" incLanes=":J19_2_0 -E14_0" intLanes=":J19_4_0 :J19_5_0 :J19_6_0 :J19_7_0 :J19_10_0 :J19_11_0"/>
    <junction id=":J19_13_0" type="internal" x="-196.80" y="100.96" incLanes=":J19_5_0 -E22_0" intLanes=":J19_1_0 :J19_2_0 :J19_7_0 :J19_8_0 :J19_9_0 :J19_10_0"/>
    <junction id=":J19_14_0" type="internal" x="-199.04" y="96.80" incLanes=":J19_8_0 -E13_0" intLanes=":J19_0_0 :J19_1_0 :J19_4_0 :J19_5_0 :J19_10_0 :J19_11_0"/>
    <junction id=":J19_15_0" type="internal" x="-203.20" y="99.04" incLanes=":J19_11_0 -E15_0" intLanes=":J19_1_0 :J19_2_0 :J19_3_0 :J19_4_0 :J19_7_0 :J19_8_0"/>
    <junction id=":J22_12_0" type="internal" x="-0.96" y="103.20" incLanes=":J22_2_0 -E17_0" intLanes=":J22_4_0 :J22_5_0 :J22_6_0 :J22_7_0 :J22_10_0 :J22_11_0"/>
    <junction id=":J22_13_0" type="internal" x="3.20" y="100.96" incLanes=":J22_5_0 E15_0" intLanes=":J22_1_0 :J22_2_0 :J22_7_0 :J22_8_0 :J22_9_0 :J22_10_0"/>
    <junction id=":J22_14_0" type="internal" x="0.96" y="96.80" incLanes=":J22_8_0 -E16_0" intLanes=":J22_0_0 :J22_1_0 :J22_4_0 :J22_5_0 :J22_10_0 :J22_11_0"/>
    <junction id=":J22_15_0" type="internal" x="-3.20" y="99.04" incLanes=":J22_11_0 -E18_0" intLanes=":J22_1_0 :J22_2_0 :J22_3_0 :J22_4_0 :J22_7_0 :J22_8_0"/>
    <junction id=":J25_12_0" type="internal" x="499.04" y="103.20" incLanes=":J25_2_0 -E20_0" intLanes=":J25_4_0 :J25_5_0 :J25_6_0 :J25_7_0 :J25_10_0 :J25_11_0"/>
    <junction id=":J25_13_0" type="internal" x="500.96" y="96.80" incLanes=":J25_8_0 -E19_0" intLanes=":J25_0_0 :J25_1_0 :J25_4_0 :J25_5_0 :J25_10_0 :J25_11_0"/>

    <connection from="-E13" to="E22" fromLane="0" toLane="0" via=":J19_0_0" tl="J19" linkIndex="0" dir="r" state="O"/>
    <connection from="-E13" to="E14" fromLane="0" toLane="0" via=":J19_1_0" tl="J19" linkIndex="1" dir="s" state="O"/>
    <connection from="-E13" to="E15" fromLane="0" toLane="0" via=":J19_2_0" tl="J19" linkIndex="2" dir="l" state="o"/>
    <connection from="-E14" to="E15" fromLane="0" toLane="0" via=":J19_6_0" tl="J19" linkIndex="6" dir="r" state="O"/>
    <connection from="-E14" to="E13" fromLane="0" toLane="0" via=":J19_7_0" tl="J19" linkIndex="7" dir="s" state="O"/>
    <connection from="-E14" to="E22" fromLane="0" toLane="0" via=":J19_8_0" tl="J19" linkIndex="8" dir="l" state="o"/>
    <connection from="-E15" to="E13" fromLane="0" toLane="0" via=":J19_3_0" tl="J19" linkIndex="3" dir="r" state="o"/>
    <connection from="-E15" to="E22" fromLane="0" toLane="0" via=":J19_4_0" tl="J19" linkIndex="4" dir="s" state="o"/>
    <connection from="-E15" to="E14" fromLane="0" toLane="0" via=":J19_5_0" tl="J19" linkIndex="5" dir="l" state="o"/>
    <connection from="-E16" to="-E15" fromLane="0" toLane="0" via=":J22_0_0" tl="J22" linkIndex="0" dir="r" state="O"/>
    <connection from="-E16" to="E17" fromLane="0" toLane="0" via=":J22_1_0" tl="J22" linkIndex="1" dir="s" state="O"/>
    <connection from="-E16" to="E18" fromLane="0" toLane="0" via=":J22_2_0" tl="J22" linkIndex="2" dir="l" state="o"/>
    <connection from="-E17" to="E18" fromLane="0" toLane="0" via=":J22_6_0" tl="J22" linkIndex="6" dir="r" state="O"/>
    <connection from="-E17" to="E16" fromLane="0" toLane="0" via=":J22_7_0" tl="J22" linkIndex="7" dir="s" state="O"/>
    <connection from="-E17" to="-E15" fromLane="0" toLane="0" via=":J22_8_0" tl="J22" linkIndex="8" dir="l" state="o"/>
    <connection from="-E18" to="E16" fromLane="0" toLane="0" via=":J22_3_0" tl="J22" linkIndex="3" dir="r" state="o"/>
    <connection from="-E18" to="-E15" fromLane="0" toLane="0" via=":J22_4_0" tl="J22" linkIndex="4" dir="s" state="o"/>
    <connection from="-E18" to="E17" fromLane="0" toLane="0" via=":J22_5_0" tl="J22" linkIndex="5" dir="l" state="o"/>
    <connection from="-E19" to="-E18" fromLane="0" toLane="0" via=":J25_0_0" dir="r" state="M"/>
    <connection from="-E19" to="E20" fromLane="0" toLane="0" via=":J25_1_0" dir="s" state="M"/>
    <connection from="-E19" to="E21" fromLane="0" toLane="0" via=":J25_2_0" dir="l" state="m"/>
    <connection from="-E20" to="E21" fromLane="0" toLane="0" via=":J25_6_0" dir="r" state="M"/>
    <connection from="-E20" to="E19" fromLane="0" toLane="0" via=":J25_7_0" dir="s" state="M"/>
    <connection from="-E20" to="-E18" fromLane="0" toLane="0" via=":J25_8_0" dir="l" state="m"/>
    <connection from="-E21" to="E19" fromLane="0" toLane="0" via=":J25_3_0" dir="r" state="m"/>
    <connection from="-E21" to="-E18" fromLane="0" toLane="0" via=":J25_4_0" dir="s" state="m"/>
    <connection from="-E21" to="E20" fromLane="0" toLane="0" via=":J25_5_0" dir="l" state="m"/>
    <connection from="-E22" to="E14" fromLane="0" toLane="0" via=":J19_9_0" tl="J19" linkIndex="9" dir="r" state="o"/>
    <connection from="-E22" to="E15" fromLane="0" toLane="0" via=":J19_10_0" tl="J19" linkIndex="10" dir="s" state="o"/>
    <connection from="-E22" to="E13" fromLane="0" toLane="0" via=":J19_11_0" tl="J19" linkIndex="11" dir="l" state="o"/>
    <connection from="E15" to="E17" fromLane="0" toLane="0" via=":J22_9_0" tl="J22" linkIndex="9" dir="r" state="o"/>
    <connection from="E15" to="E18" fromLane="0" toLane="0" via=":J22_10_0" tl="J22" linkIndex="10" dir="s" state="o"/>
    <connection from="E15" to="E16" fromLane="0" toLane="0" via=":J22_11_0" tl="J22" linkIndex="11" dir="l" state="o"/>
    <connection from="E18" to="E20" fromLane="0" toLane="0" via=":J25_9_0" dir="r" state="m"/>
    <connection from="E18" to="E21" fromLane="0" toLane="0" via=":J25_10_0" dir="s" state="m"/>
    <connection from="E18" to="E19" fromLane="0" toLane="0" via=":J25_11_0" dir="l" state="m"/>

    <connection from=":J19_0" to="E22" fromLane="0" toLane="0" dir="r" state="M"/>
    <connection from=":J19_1" to="E14" fromLane="0" toLane="0" dir="s" state="M"/>
    <connection from=":J19_2" to="E15" fromLane="0" toLane="0" via=":J19_12_0" dir="l" state="m"/>
    <connection from=":J19_12" to="E15" fromLane="0" toLane="0" dir="l" state="M"/>
    <connection from=":J19_3" to="E13" fromLane="0" toLane="0" dir="r" state="M"/>
    <connection from=":J19_4" to="E22" fromLane="0" toLane="0" dir="s" state="M"/>
    <connection from=":J19_5" to="E14" fromLane="0" toLane="0" via=":J19_13_0" dir="l" state="m"/>
    <connection from=":J19_13" to="E14" fromLane="0" toLane="0" dir="l" state="M"/>
    <connection from=":J19_6" to="E15" fromLane="0" toLane="0" dir="r" state="M"/>
    <connection from=":J19_7" to="E13" fromLane="0" toLane="0" dir="s" state="M"/>
    <connection from=":J19_8" to="E22" fromLane="0" toLane="0" via=":J19_14_0" dir="l" state="m"/>
    <connection from=":J19_14" to="E22" fromLane="0" toLane="0" dir="l" state="M"/>
    <connection from=":J19_9" to="E14" fromLane="0" toLane="0" dir="r" state="M"/>
    <connection from=":J19_10" to="E15" fromLane="0" toLane="0" dir="s" state="M"/>
    <connection from=":J19_11" to="E13" fromLane="0" toLane="0" via=":J19_15_0" dir="l" state="m"/>
    <connection from=":J19_15" to="E13" fromLane="0" toLane="0" dir="l" state="M"/>
    <connection from=":J22_0" to="-E15" fromLane="0" toLane="0" dir="r" state="M"/>
    <connection from=":J22_1" to="E17" fromLane="0" toLane="0" dir="s" state="M"/>
    <connection from=":J22_2" to="E18" fromLane="0" toLane="0" via=":J22_12_0" dir="l" state="m"/>
    <connection from=":J22_12" to="E18" fromLane="0" toLane="0" dir="l" state="M"/>
    <connection from=":J22_3" to="E16" fromLane="0" toLane="0" dir="r" state="M"/>
    <connection from=":J22_4" to="-E15" fromLane="0" toLane="0" dir="s" state="M"/>
    <connection from=":J22_5" to="E17" fromLane="0" toLane="0" via=":J22_13_0" dir="l" state="m"/>
    <connection from=":J22_13" to="E17" fromLane="0" toLane="0" dir="l" state="M"/>
    <connection from=":J22_6" to="E18" fromLane="0" toLane="0" dir="r" state="M"/>
    <connection from=":J22_7" to="E16" fromLane="0" toLane="0" dir="s" state="M"/>
    <connection from=":J22_8" to="-E15" fromLane="0" toLane="0" via=":J22_14_0" dir="l" state="m"/>
    <connection from=":J22_14" to="-E15" fromLane="0" toLane="0" dir="l" state="M"/>
    <connection from=":J22_9" to="E17" fromLane="0" toLane="0" dir="r" state="M"/>
    <connection from=":J22_10" to="E18" fromLane="0" toLane="0" dir="s" state="M"/>
    <connection from=":J22_11" to="E16" fromLane="0" toLane="0" via=":J22_15_0" dir="l" state="m"/>
    <connection from=":J22_15" to="E16" fromLane="0" toLane="0" dir="l" state="M"/>
    <connection from=":J25_0" to="-E18" fromLane="0" toLane="0" dir="r" state="M"/>
    <connection from=":J25_1" to="E20" fromLane="0" toLane="0" dir="s" state="M"/>
    <connection from=":J25_2" to="E21" fromLane="0" toLane="0" via=":J25_12_0" dir="l" state="m"/>
    <connection from=":J25_12" to="E21" fromLane="0" toLane="0" dir="l" state="M"/>
    <connection from=":J25_3" to="E19" fromLane="0" toLane="0" dir="r" state="M"/>
    <connection from=":J25_4" to="-E18" fromLane="0" toLane="0" dir="s" state="M"/>
    <connection from=":J25_5" to="E20" fromLane="0" toLane="0" dir="l" state="M"/>
    <connection from=":J25_6" to="E21" fromLane="0" toLane="0" dir="r" state="M"/>
    <connection from=":J25_7" to="E19" fromLane="0" toLane="0" dir="s" state="M"/>
    <connection from=":J25_8" to="-E18" fromLane="0" toLane="0" via=":J25_13_0" dir="l" state="m"/>
    <connection from=":J25_13" to="-E18" fromLane="0" toLane="0" dir="l" state="M"/>
    <connection from=":J25_9" to="E20" fromLane="0" toLane="0" dir="r" state="M"/>
    <connection from=":J25_10" to="E21" fromLane="0" toLane="0" dir="s" state="M"/>
    <connection from=":J25_11" to="E19" fromLane="0" toLane="0" dir="l" state="M"/>

</net>
