<?xml version="1.0" encoding="UTF-8"?>

<!-- generated on 2024-01-28 12:50:58 by Eclipse SUMO netedit Version 1.18.0
<configuration xmlns:xsi="http://www.w3.org/2001/XMLSchema-instance" xsi:noNamespaceSchemaLocation="http://sumo.dlr.de/xsd/neteditConfiguration.xsd">

    <input>
        <sumo-net-file value="C:\Users\chuny\Desktop\lucas\TimIssue11\traffic_optimization\mynetworks\school.net.xml"/>
    </input>

    <output>
        <output-file value="C:\Users\chuny\Desktop\lucas\TimIssue11\traffic_optimization\mynetworks\school.net.xml"/>
    </output>

    <processing>
        <geometry.min-radius.fix.railways value="false"/>
        <geometry.max-grade.fix value="false"/>
        <offset.disable-normalization value="true"/>
        <lefthand value="0"/>
    </processing>

    <junctions>
        <no-turnarounds value="true"/>
        <junctions.corner-detail value="5"/>
        <junctions.limit-turn-speed value="5.50"/>
        <rectangular-lane-cut value="0"/>
    </junctions>

    <pedestrian>
        <walkingareas value="0"/>
    </pedestrian>

</configuration>
-->

<net version="1.16" junctionCornerDetail="5" limitTurnSpeed="5.50" xmlns:xsi="http://www.w3.org/2001/XMLSchema-instance" xsi:noNamespaceSchemaLocation="http://sumo.dlr.de/xsd/net_file.xsd">

    <location netOffset="0.00,0.00" convBoundary="-277.23,-418.26,302.92,183.78" origBoundary="-10000000000.00,-10000000000.00,10000000000.00,10000000000.00" projParameter="!"/>

    <edge id=":J11_0" function="internal">
        <lane id=":J11_0_0" index="0" speed="6.49" length="9.03" shape="-155.27,91.15 -155.62,88.70 -156.67,86.95 -158.42,85.91 -160.88,85.58"/>
    </edge>
    <edge id=":J11_1" function="internal">
        <lane id=":J11_1_0" index="0" speed="13.89" length="21.19" shape="-155.27,91.15 -155.12,69.95"/>
        <lane id=":J11_1_1" index="1" speed="13.89" length="21.19" shape="-152.07,91.16 -151.92,69.99"/>
    </edge>
    <edge id=":J11_3" function="internal">
        <lane id=":J11_3_0" index="0" speed="9.47" length="5.14" shape="-152.07,91.16 -151.33,86.07"/>
    </edge>
    <edge id=":J11_16" function="internal">
        <lane id=":J11_16_0" index="0" speed="9.47" length="14.60" shape="-151.33,86.07 -151.30,85.88 -149.00,82.06 -145.17,79.68 -139.82,78.75"/>
    </edge>
    <edge id=":J11_4" function="internal">
        <lane id=":J11_4_0" index="0" speed="6.79" length="9.67" shape="-139.60,85.15 -142.26,85.60 -144.15,86.75 -145.29,88.61 -145.67,91.16"/>
    </edge>
    <edge id=":J11_5" function="internal">
        <lane id=":J11_5_0" index="0" speed="13.89" length="21.24" shape="-139.60,85.15 -160.88,85.58"/>
        <lane id=":J11_5_1" index="1" speed="13.89" length="21.24" shape="-139.71,81.95 -160.90,82.38"/>
    </edge>
    <edge id=":J11_7" function="internal">
        <lane id=":J11_7_0" index="0" speed="9.19" length="5.31" shape="-139.71,81.95 -144.99,81.37"/>
    </edge>
    <edge id=":J11_17" function="internal">
        <lane id=":J11_17_0" index="0" speed="9.19" length="14.40" shape="-144.99,81.37 -145.11,81.36 -148.95,79.17 -151.22,75.38 -151.92,69.99"/>
    </edge>
    <edge id=":J11_8" function="internal">
        <lane id=":J11_8_0" index="0" speed="6.41" length="9.04" shape="-145.53,70.07 -145.20,72.54 -144.16,74.28 -142.40,75.28 -139.92,75.55"/>
    </edge>
    <edge id=":J11_9" function="internal">
        <lane id=":J11_9_0" index="0" speed="13.89" length="21.12" shape="-145.53,70.07 -145.67,91.16"/>
        <lane id=":J11_9_1" index="1" speed="13.89" length="21.12" shape="-148.73,70.03 -148.87,91.16"/>
    </edge>
    <edge id=":J11_11" function="internal">
        <lane id=":J11_11_0" index="0" speed="9.40" length="4.94" shape="-148.73,70.03 -149.47,74.91"/>
    </edge>
    <edge id=":J11_18" function="internal">
        <lane id=":J11_18_0" index="0" speed="9.40" length="14.76" shape="-149.47,74.91 -149.54,75.40 -151.85,79.25 -155.63,81.58 -160.90,82.38"/>
    </edge>
    <edge id=":J11_12" function="internal">
        <lane id=":J11_12_0" index="0" speed="6.70" length="9.51" shape="-160.94,75.98 -158.42,75.59 -156.62,74.45 -155.52,72.57 -155.12,69.95"/>
    </edge>
    <edge id=":J11_13" function="internal">
        <lane id=":J11_13_0" index="0" speed="13.89" length="21.06" shape="-160.94,75.98 -139.92,75.55"/>
        <lane id=":J11_13_1" index="1" speed="13.89" length="21.06" shape="-160.92,79.18 -139.82,78.75"/>
    </edge>
    <edge id=":J11_15" function="internal">
        <lane id=":J11_15_0" index="0" speed="9.25" length="4.58" shape="-160.92,79.18 -156.38,79.80"/>
    </edge>
    <edge id=":J11_19" function="internal">
        <lane id=":J11_19_0" index="0" speed="9.25" length="14.83" shape="-156.38,79.80 -155.64,79.90 -151.88,82.13 -149.62,85.89 -148.87,91.16"/>
    </edge>
    <edge id=":J12_0" function="internal">
        <lane id=":J12_0_0" index="0" speed="6.47" length="9.06" shape="-138.76,-19.60 -141.23,-19.33 -143.00,-18.33 -144.08,-16.60 -144.46,-14.13"/>
    </edge>
    <edge id=":J12_1" function="internal">
        <lane id=":J12_1_0" index="0" speed="13.89" length="20.96" shape="-138.76,-19.60 -159.64,-19.81"/>
        <lane id=":J12_1_1" index="1" speed="13.89" length="20.96" shape="-138.65,-22.80 -159.69,-23.01"/>
    </edge>
    <edge id=":J12_3" function="internal">
        <lane id=":J12_3_0" index="0" speed="9.50" length="4.34" shape="-138.65,-22.80 -142.93,-23.55"/>
    </edge>
    <edge id=":J12_16" function="internal">
        <lane id=":J12_16_0" index="0" speed="9.50" length="15.28" shape="-142.93,-23.55 -143.93,-23.73 -147.74,-26.10 -150.07,-29.91 -150.91,-35.15"/>
    </edge>
    <edge id=":J12_4" function="internal">
        <lane id=":J12_4_0" index="0" speed="6.84" length="9.70" shape="-144.51,-35.27 -144.09,-32.69 -142.94,-30.82 -141.05,-29.65 -138.42,-29.20"/>
    </edge>
    <edge id=":J12_5" function="internal">
        <lane id=":J12_5_0" index="0" speed="13.89" length="21.09" shape="-144.51,-35.27 -144.46,-14.13"/>
        <lane id=":J12_5_1" index="1" speed="13.89" length="21.09" shape="-147.71,-35.21 -147.66,-14.17"/>
    </edge>
    <edge id=":J12_7" function="internal">
        <lane id=":J12_7_0" index="0" speed="9.29" length="5.31" shape="-147.71,-35.21 -148.38,-29.94"/>
    </edge>
    <edge id=":J12_17" function="internal">
        <lane id=":J12_17_0" index="0" speed="9.29" length="14.19" shape="-148.38,-29.94 -150.60,-26.15 -154.37,-23.84 -159.69,-23.01"/>
    </edge>
    <edge id=":J12_8" function="internal">
        <lane id=":J12_8_0" index="0" speed="6.55" length="9.17" shape="-159.78,-29.41 -157.27,-29.80 -155.48,-30.87 -154.43,-32.64 -154.11,-35.10"/>
    </edge>
    <edge id=":J12_9" function="internal">
        <lane id=":J12_9_0" index="0" speed="13.89" length="21.28" shape="-159.78,-29.41 -138.42,-29.20"/>
        <lane id=":J12_9_1" index="1" speed="13.89" length="21.28" shape="-159.73,-26.21 -138.53,-26.00"/>
    </edge>
    <edge id=":J12_11" function="internal">
        <lane id=":J12_11_0" index="0" speed="9.21" length="5.38" shape="-159.73,-26.21 -154.40,-25.53"/>
    </edge>
    <edge id=":J12_18" function="internal">
        <lane id=":J12_18_0" index="0" speed="9.21" length="14.18" shape="-154.40,-25.53 -150.60,-23.29 -148.36,-19.51 -147.66,-14.17"/>
    </edge>
    <edge id=":J12_12" function="internal">
        <lane id=":J12_12_0" index="0" speed="6.45" length="9.03" shape="-154.06,-14.25 -154.38,-16.71 -155.42,-18.46 -157.17,-19.49 -159.64,-19.81"/>
    </edge>
    <edge id=":J12_13" function="internal">
        <lane id=":J12_13_0" index="0" speed="13.89" length="20.90" shape="-154.06,-14.25 -154.11,-35.10"/>
        <lane id=":J12_13_1" index="1" speed="13.89" length="20.90" shape="-150.86,-14.21 -150.91,-35.15"/>
    </edge>
    <edge id=":J12_15" function="internal">
        <lane id=":J12_15_0" index="0" speed="9.23" length="4.55" shape="-150.86,-14.21 -150.16,-18.70"/>
    </edge>
    <edge id=":J12_19" function="internal">
        <lane id=":J12_19_0" index="0" speed="9.23" length="15.00" shape="-150.16,-18.70 -150.03,-19.53 -147.70,-23.27 -143.87,-25.42 -138.53,-26.00"/>
    </edge>
    <edge id=":J13_0" function="internal">
        <lane id=":J13_0_0" index="0" speed="13.89" length="14.56" shape="-155.26,-100.41 -155.38,-115.00"/>
        <lane id=":J13_0_1" index="1" speed="13.89" length="14.56" shape="-152.06,-100.46 -152.18,-115.00"/>
    </edge>
    <edge id=":J13_2" function="internal">
        <lane id=":J13_2_0" index="0" speed="8.87" length="3.60" shape="-152.06,-100.46 -151.40,-104.00"/>
    </edge>
    <edge id=":J13_8" function="internal">
        <lane id=":J13_8_0" index="0" speed="8.87" length="13.30" shape="-151.40,-104.00 -151.37,-104.16 -149.14,-106.94 -145.37,-108.78 -140.07,-109.70"/>
    </edge>
    <edge id=":J13_3" function="internal">
        <lane id=":J13_3_0" index="0" speed="6.76" length="9.38" shape="-139.84,-106.54 -142.42,-106.00 -144.25,-104.82 -145.33,-103.01 -145.66,-100.57"/>
    </edge>
    <edge id=":J13_4" function="internal">
        <lane id=":J13_4_0" index="0" speed="8.54" length="17.27" shape="-139.84,-106.54 -145.24,-106.71 -149.09,-108.18 -151.41,-110.94 -152.18,-115.00"/>
    </edge>
    <edge id=":J13_5" function="internal">
        <lane id=":J13_5_0" index="0" speed="6.35" length="9.04" shape="-145.78,-115.00 -145.42,-112.52 -144.35,-110.81 -142.57,-109.87 -140.07,-109.70"/>
    </edge>
    <edge id=":J13_6" function="internal">
        <lane id=":J13_6_0" index="0" speed="13.89" length="14.45" shape="-145.78,-115.00 -145.66,-100.57"/>
        <lane id=":J13_6_1" index="1" speed="13.89" length="14.45" shape="-148.98,-115.00 -148.86,-100.52"/>
    </edge>
    <edge id=":J25_0" function="internal">
        <lane id=":J25_0_0" index="0" speed="6.71" length="9.47" shape="-155.39,-289.73 -155.75,-292.32 -156.83,-294.19 -158.63,-295.34 -161.15,-295.78"/>
    </edge>
    <edge id=":J25_1" function="internal">
        <lane id=":J25_1_0" index="0" speed="13.89" length="21.08" shape="-155.39,-289.73 -155.19,-310.84"/>
        <lane id=":J25_1_1" index="1" speed="13.89" length="21.08" shape="-152.19,-289.73 -151.99,-310.78"/>
    </edge>
    <edge id=":J25_3" function="internal">
        <lane id=":J25_3_0" index="0" speed="9.21" length="5.23" shape="-152.19,-289.73 -151.45,-294.91"/>
    </edge>
    <edge id=":J25_16" function="internal">
        <lane id=":J25_16_0" index="0" speed="9.21" length="14.33" shape="-151.45,-294.91 -151.43,-295.06 -149.14,-298.82 -145.32,-301.00 -139.97,-301.62"/>
    </edge>
    <edge id=":J25_4" function="internal">
        <lane id=":J25_4_0" index="0" speed="6.45" length="9.03" shape="-140.15,-295.22 -142.62,-294.94 -144.38,-293.93 -145.44,-292.19 -145.79,-289.73"/>
    </edge>
    <edge id=":J25_5" function="internal">
        <lane id=":J25_5_0" index="0" speed="13.89" length="21.01" shape="-140.15,-295.22 -161.15,-295.78"/>
        <lane id=":J25_5_1" index="1" speed="13.89" length="21.01" shape="-140.06,-298.42 -161.07,-298.98"/>
    </edge>
    <edge id=":J25_7" function="internal">
        <lane id=":J25_7_0" index="0" speed="9.33" length="5.04" shape="-140.06,-298.42 -145.03,-299.26"/>
    </edge>
    <edge id=":J25_17" function="internal">
        <lane id=":J25_17_0" index="0" speed="9.33" length="14.51" shape="-145.03,-299.26 -145.37,-299.32 -149.12,-301.68 -151.33,-305.50 -151.99,-310.78"/>
    </edge>
    <edge id=":J25_8" function="internal">
        <lane id=":J25_8_0" index="0" speed="6.61" length="9.29" shape="-145.59,-310.66 -145.27,-308.16 -144.22,-306.36 -142.42,-305.24 -139.89,-304.82"/>
    </edge>
    <edge id=":J25_9" function="internal">
        <lane id=":J25_9_0" index="0" speed="13.89" length="20.95" shape="-145.59,-310.66 -145.79,-289.73"/>
        <lane id=":J25_9_1" index="1" speed="13.89" length="20.95" shape="-148.79,-310.72 -148.99,-289.73"/>
    </edge>
    <edge id=":J25_11" function="internal">
        <lane id=":J25_11_0" index="0" speed="9.25" length="4.70" shape="-148.79,-310.72 -149.54,-306.08"/>
    </edge>
    <edge id=":J25_18" function="internal">
        <lane id=":J25_18_0" index="0" speed="9.25" length="14.70" shape="-149.54,-306.08 -149.64,-305.47 -151.97,-301.76 -155.78,-299.59 -161.07,-298.98"/>
    </edge>
    <edge id=":J25_12" function="internal">
        <lane id=":J25_12_0" index="0" speed="6.49" length="9.03" shape="-160.90,-305.37 -158.44,-305.66 -156.67,-306.67 -155.59,-308.39 -155.19,-310.84"/>
    </edge>
    <edge id=":J25_13" function="internal">
        <lane id=":J25_13_0" index="0" speed="13.89" length="21.02" shape="-160.90,-305.37 -139.89,-304.82"/>
        <lane id=":J25_13_1" index="1" speed="13.89" length="21.02" shape="-160.99,-302.17 -139.97,-301.62"/>
    </edge>
    <edge id=":J25_15" function="internal">
        <lane id=":J25_15_0" index="0" speed="9.40" length="5.01" shape="-160.99,-302.17 -156.05,-301.33"/>
    </edge>
    <edge id=":J25_19" function="internal">
        <lane id=":J25_19_0" index="0" speed="9.40" length="14.59" shape="-156.05,-301.33 -155.74,-301.28 -151.99,-298.91 -149.74,-295.06 -148.99,-289.73"/>
    </edge>
    <edge id=":J33_0" function="internal">
        <lane id=":J33_0_0" index="0" speed="5.78" length="9.16" shape="-55.73,-288.63 -58.25,-289.61 -60.12,-289.38 -61.34,-287.95 -61.91,-285.31"/>
    </edge>
    <edge id=":J33_1" function="internal">
        <lane id=":J33_1_0" index="0" speed="13.89" length="16.24" shape="-55.73,-288.63 -59.73,-290.89 -62.61,-292.28 -65.66,-293.02 -70.19,-293.32"/>
        <lane id=":J33_1_1" index="1" speed="13.89" length="16.24" shape="-54.18,-291.43 -58.57,-293.90 -61.75,-295.41 -65.12,-296.20 -70.11,-296.52"/>
    </edge>
    <edge id=":J33_3" function="internal">
        <lane id=":J33_3_0" index="0" speed="13.89" length="19.34" shape="-69.93,-302.91 -64.03,-302.55 -60.03,-301.67 -56.27,-299.93 -51.07,-297.02"/>
        <lane id=":J33_3_1" index="1" speed="13.89" length="19.34" shape="-70.02,-299.71 -64.58,-299.37 -60.89,-298.54 -57.42,-296.91 -52.63,-294.22"/>
    </edge>
    <edge id=":J33_5" function="internal">
        <lane id=":J33_5_0" index="0" speed="8.97" length="3.85" shape="-70.02,-299.71 -66.28,-298.77"/>
    </edge>
    <edge id=":J33_8" function="internal">
        <lane id=":J33_8_0" index="0" speed="8.97" length="14.93" shape="-66.28,-298.77 -66.06,-298.72 -63.39,-295.99 -62.01,-291.52 -61.91,-285.31"/>
    </edge>
    <edge id=":J33_6" function="internal">
        <lane id=":J33_6_0" index="0" speed="6.89" length="10.64" shape="-65.09,-285.55 -65.19,-288.89 -66.08,-291.30 -67.74,-292.77 -70.19,-293.32"/>
    </edge>
    <edge id=":J33_7" function="internal">
        <lane id=":J33_7_0" index="0" speed="8.17" length="19.75" shape="-65.09,-285.55 -63.89,-291.71 -61.41,-295.21 -57.65,-296.04 -52.63,-294.22"/>
    </edge>
    <edge id=":J44_0" function="internal">
        <lane id=":J44_0_0" index="0" speed="7.08" length="9.55" shape="62.53,-249.40 62.04,-252.05 60.93,-254.02 59.20,-255.30 56.84,-255.91"/>
    </edge>
    <edge id=":J44_1" function="internal">
        <lane id=":J44_1_0" index="0" speed="8.58" length="17.17" shape="62.53,-249.40 62.79,-254.77 64.30,-258.61 67.06,-260.91 71.06,-261.69"/>
    </edge>
    <edge id=":J44_2" function="internal">
        <lane id=":J44_2_0" index="0" speed="6.39" length="9.04" shape="71.08,-255.29 68.61,-254.93 66.90,-253.86 65.94,-252.08 65.73,-249.59"/>
    </edge>
    <edge id=":J44_3" function="internal">
        <lane id=":J44_3_0" index="0" speed="13.89" length="14.10" shape="71.08,-255.29 66.85,-255.28 63.95,-255.33 61.06,-255.51 56.84,-255.91"/>
        <lane id=":J44_3_1" index="1" speed="13.89" length="14.10" shape="71.07,-258.49 66.94,-258.48 64.10,-258.53 61.28,-258.71 57.16,-259.09"/>
    </edge>
    <edge id=":J44_5" function="internal">
        <lane id=":J44_5_0" index="0" speed="13.89" length="13.45" shape="57.79,-265.46 61.72,-265.09 64.41,-264.92 67.11,-264.88 71.06,-264.89"/>
        <lane id=":J44_5_1" index="1" speed="13.89" length="13.45" shape="57.48,-262.28 61.50,-261.90 64.26,-261.72 67.02,-261.68 71.06,-261.69"/>
    </edge>
    <edge id=":J44_7" function="internal">
        <lane id=":J44_7_0" index="0" speed="9.14" length="3.31" shape="57.48,-262.28 60.63,-261.26"/>
    </edge>
    <edge id=":J44_8" function="internal">
        <lane id=":J44_8_0" index="0" speed="9.14" length="13.24" shape="60.63,-261.26 60.82,-261.20 63.31,-258.73 64.95,-254.86 65.73,-249.59"/>
    </edge>
    <edge id=":J45_0" function="internal">
        <lane id=":J45_0_0" index="0" speed="6.51" length="9.05" shape="176.50,-249.96 176.15,-252.42 175.09,-254.18 173.34,-255.23 170.89,-255.57"/>
    </edge>
    <edge id=":J45_1" function="internal">
        <lane id=":J45_1_0" index="0" speed="13.89" length="20.82" shape="176.50,-249.96 176.48,-270.79"/>
        <lane id=":J45_1_1" index="1" speed="13.89" length="20.82" shape="179.70,-249.97 179.68,-270.79"/>
    </edge>
    <edge id=":J45_3" function="internal">
        <lane id=":J45_3_0" index="0" speed="9.25" length="5.05" shape="179.70,-249.97 180.41,-254.97"/>
    </edge>
    <edge id=":J45_16" function="internal">
        <lane id=":J45_16_0" index="0" speed="9.25" length="14.34" shape="180.41,-254.97 180.44,-255.23 182.69,-258.99 186.45,-261.24 191.71,-261.98"/>
    </edge>
    <edge id=":J45_4" function="internal">
        <lane id=":J45_4_0" index="0" speed="6.50" length="9.03" shape="191.70,-255.58 189.24,-255.23 187.49,-254.18 186.45,-252.43 186.10,-249.98"/>
    </edge>
    <edge id=":J45_5" function="internal">
        <lane id=":J45_5_0" index="0" speed="13.89" length="20.82" shape="191.70,-255.58 170.89,-255.57"/>
        <lane id=":J45_5_1" index="1" speed="13.89" length="20.82" shape="191.70,-258.78 170.88,-258.77"/>
    </edge>
    <edge id=":J45_7" function="internal">
        <lane id=":J45_7_0" index="0" speed="9.27" length="4.95" shape="191.70,-258.78 186.81,-259.48"/>
    </edge>
    <edge id=":J45_17" function="internal">
        <lane id=":J45_17_0" index="0" speed="9.27" length="14.42" shape="186.81,-259.48 186.44,-259.54 182.69,-261.79 180.43,-265.54 179.68,-270.79"/>
    </edge>
    <edge id=":J45_8" function="internal">
        <lane id=":J45_8_0" index="0" speed="6.52" length="9.06" shape="186.08,-270.79 186.43,-268.34 187.49,-266.59 189.25,-265.53 191.72,-265.18"/>
    </edge>
    <edge id=":J45_9" function="internal">
        <lane id=":J45_9_0" index="0" speed="13.89" length="20.81" shape="186.08,-270.79 186.10,-249.98"/>
        <lane id=":J45_9_1" index="1" speed="13.89" length="20.81" shape="182.88,-270.79 182.90,-249.98"/>
    </edge>
    <edge id=":J45_11" function="internal">
        <lane id=":J45_11_0" index="0" speed="9.27" length="4.97" shape="182.88,-270.79 182.18,-265.86"/>
    </edge>
    <edge id=":J45_18" function="internal">
        <lane id=":J45_18_0" index="0" speed="9.27" length="14.38" shape="182.18,-265.86 182.13,-265.54 179.88,-261.79 176.13,-259.53 170.88,-258.77"/>
    </edge>
    <edge id=":J45_12" function="internal">
        <lane id=":J45_12_0" index="0" speed="6.52" length="9.05" shape="170.86,-265.17 173.32,-265.53 175.08,-266.58 176.13,-268.34 176.48,-270.79"/>
    </edge>
    <edge id=":J45_13" function="internal">
        <lane id=":J45_13_0" index="0" speed="13.89" length="20.85" shape="170.86,-265.17 191.72,-265.18"/>
        <lane id=":J45_13_1" index="1" speed="13.89" length="20.85" shape="170.87,-261.97 191.71,-261.98"/>
    </edge>
    <edge id=":J45_15" function="internal">
        <lane id=":J45_15_0" index="0" speed="9.26" length="5.09" shape="170.87,-261.97 175.91,-261.26"/>
    </edge>
    <edge id=":J45_19" function="internal">
        <lane id=":J45_19_0" index="0" speed="9.26" length="14.29" shape="175.91,-261.26 176.13,-261.23 179.88,-258.99 182.14,-255.24 182.90,-249.98"/>
    </edge>
    <edge id=":J52_0" function="internal">
        <lane id=":J52_0_0" index="0" speed="8.17" length="12.24" shape="52.53,-12.22 50.05,-11.95 47.86,-10.55 45.95,-8.03 44.32,-4.40"/>
    </edge>
    <edge id=":J52_1" function="internal">
        <lane id=":J52_1_0" index="0" speed="13.89" length="21.51" shape="52.53,-12.22 31.18,-13.63"/>
        <lane id=":J52_1_1" index="1" speed="13.89" length="21.51" shape="52.87,-15.40 31.29,-16.83"/>
    </edge>
    <edge id=":J52_3" function="internal">
        <lane id=":J52_3_0" index="0" speed="8.48" length="3.39" shape="52.87,-15.40 49.62,-16.34"/>
    </edge>
    <edge id=":J52_15" function="internal">
        <lane id=":J52_15_0" index="0" speed="8.48" length="15.02" shape="49.62,-16.34 48.33,-16.71 45.63,-19.42 44.79,-23.55 45.79,-29.09"/>
    </edge>
    <edge id=":J52_4" function="internal">
        <lane id=":J52_4_0" index="0" speed="6.26" length="9.50" shape="48.85,-28.15 48.49,-25.62 49.15,-23.71 50.85,-22.43 53.57,-21.76"/>
    </edge>
    <edge id=":J52_5" function="internal">
        <lane id=":J52_5_0" index="0" speed="13.89" length="24.06" shape="48.85,-28.15 47.99,-23.75 47.28,-18.02 46.23,-11.41 44.32,-4.40"/>
        <lane id=":J52_5_1" index="1" speed="13.89" length="24.06" shape="48.85,-28.15 41.30,-5.46"/>
    </edge>
    <edge id=":J52_7" function="internal">
        <lane id=":J52_7_0" index="0" speed="11.13" length="7.47" shape="48.85,-28.15 46.38,-23.01 45.11,-21.79"/>
    </edge>
    <edge id=":J52_16" function="internal">
        <lane id=":J52_16_0" index="0" speed="11.13" length="15.20" shape="45.11,-21.79 42.63,-19.41 37.60,-17.35 31.29,-16.83"/>
    </edge>
    <edge id=":J52_8" function="internal">
        <lane id=":J52_8_0" index="0" speed="9.56" length="16.52" shape="31.52,-23.22 37.03,-23.43 41.25,-24.47 44.17,-26.36 45.79,-29.09"/>
    </edge>
    <edge id=":J52_9" function="internal">
        <lane id=":J52_9_0" index="0" speed="13.89" length="21.98" shape="31.52,-23.22 53.57,-21.76"/>
        <lane id=":J52_9_1" index="1" speed="13.89" length="21.98" shape="31.40,-20.02 53.22,-18.58"/>
    </edge>
    <edge id=":J52_11" function="internal">
        <lane id=":J52_11_0" index="0" speed="8.89" length="6.13" shape="31.40,-20.02 37.44,-18.95"/>
    </edge>
    <edge id=":J52_17" function="internal">
        <lane id=":J52_17_0" index="0" speed="8.89" length="15.76" shape="37.44,-18.95 37.60,-18.92 41.31,-16.12 42.55,-11.64 41.30,-5.46"/>
    </edge>
    <edge id=":J52_12" function="internal">
        <lane id=":J52_12_0" index="0" speed="5.96" length="9.09" shape="35.31,-7.58 35.82,-10.15 35.30,-12.01 33.75,-13.17 31.18,-13.63"/>
    </edge>
    <edge id=":J52_13" function="internal">
        <lane id=":J52_13_0" index="0" speed="13.89" length="23.96" shape="35.31,-7.58 38.13,-14.25 41.24,-20.09 44.00,-25.04 45.79,-29.09"/>
    </edge>
    <edge id=":J52_14" function="internal">
        <lane id=":J52_14_0" index="0" speed="10.51" length="5.75" shape="38.33,-6.51 40.76,-11.73"/>
    </edge>
    <edge id=":J52_18" function="internal">
        <lane id=":J52_18_0" index="0" speed="10.51" length="15.10" shape="40.76,-11.73 40.99,-12.22 44.36,-16.13 48.43,-18.25 53.22,-18.58"/>
    </edge>
    <edge id=":J54_0" function="internal">
        <lane id=":J54_0_0" index="0" speed="6.73" length="9.28" shape="176.85,-162.50 176.42,-164.92 175.29,-166.68 173.45,-167.77 170.90,-168.21"/>
    </edge>
    <edge id=":J54_1" function="internal">
        <lane id=":J54_1_0" index="0" speed="13.89" length="14.33" shape="176.85,-162.50 176.65,-176.87"/>
        <lane id=":J54_1_1" index="1" speed="13.89" length="14.33" shape="180.05,-162.59 179.85,-176.87"/>
    </edge>
    <edge id=":J54_3" function="internal">
        <lane id=":J54_3_0" index="0" speed="13.89" length="14.17" shape="186.25,-176.89 186.45,-162.75"/>
        <lane id=":J54_3_1" index="1" speed="13.89" length="14.17" shape="183.05,-176.88 183.25,-162.67"/>
    </edge>
    <edge id=":J54_5" function="internal">
        <lane id=":J54_5_0" index="0" speed="8.61" length="3.58" shape="183.05,-176.88 182.38,-173.36"/>
    </edge>
    <edge id=":J54_8" function="internal">
        <lane id=":J54_8_0" index="0" speed="8.61" length="13.48" shape="182.38,-173.36 182.30,-172.93 180.03,-170.16 176.22,-168.59 170.90,-168.21"/>
    </edge>
    <edge id=":J54_6" function="internal">
        <lane id=":J54_6_0" index="0" speed="6.43" length="9.03" shape="171.01,-171.40 173.48,-171.67 175.25,-172.67 176.31,-174.40 176.65,-176.87"/>
    </edge>
    <edge id=":J54_7" function="internal">
        <lane id=":J54_7_0" index="0" speed="8.85" length="16.78" shape="171.01,-171.40 176.28,-170.70 180.08,-169.01 182.40,-166.33 183.25,-162.67"/>
    </edge>
    <edge id=":J55_0" function="internal">
        <lane id=":J55_0_0" index="0" speed="7.04" length="9.75" shape="179.37,-62.71 178.96,-65.12 177.78,-66.95 175.82,-68.19 173.09,-68.84"/>
    </edge>
    <edge id=":J55_1" function="internal">
        <lane id=":J55_1_0" index="0" speed="13.89" length="14.51" shape="179.37,-62.71 179.10,-77.19"/>
        <lane id=":J55_1_1" index="1" speed="13.89" length="14.51" shape="182.57,-62.74 182.30,-77.28"/>
    </edge>
    <edge id=":J55_3" function="internal">
        <lane id=":J55_3_0" index="0" speed="13.89" length="14.62" shape="188.69,-77.45 188.97,-62.81"/>
        <lane id=":J55_3_1" index="1" speed="13.89" length="14.62" shape="185.50,-77.36 185.77,-62.78"/>
    </edge>
    <edge id=":J55_5" function="internal">
        <lane id=":J55_5_0" index="0" speed="8.45" length="4.07" shape="185.50,-77.36 184.86,-73.34"/>
    </edge>
    <edge id=":J55_8" function="internal">
        <lane id=":J55_8_0" index="0" speed="8.45" length="13.60" shape="184.86,-73.34 184.82,-73.09 182.52,-70.25 178.61,-68.83 173.09,-68.84"/>
    </edge>
    <edge id=":J55_6" function="internal">
        <lane id=":J55_6_0" index="0" speed="6.22" length="9.05" shape="173.45,-72.02 175.98,-72.09 177.76,-72.98 178.80,-74.68 179.10,-77.19"/>
    </edge>
    <edge id=":J55_7" function="internal">
        <lane id=":J55_7_0" index="0" speed="9.11" length="16.94" shape="173.45,-72.02 178.81,-70.91 182.65,-69.01 184.97,-66.29 185.77,-62.78"/>
    </edge>
    <edge id=":J56_0" function="internal">
        <lane id=":J56_0_0" index="0" speed="6.51" length="9.03" shape="195.13,2.28 192.67,2.62 190.92,3.65 189.85,5.40 189.48,7.84"/>
    </edge>
    <edge id=":J56_1" function="internal">
        <lane id=":J56_1_0" index="0" speed="13.89" length="21.91" shape="195.13,2.28 188.86,2.20 184.09,2.01 179.33,1.63 173.10,0.97"/>
        <lane id=":J56_1_1" index="1" speed="13.89" length="21.91" shape="195.14,-0.92 188.93,-0.99 184.28,-1.18 179.63,-1.56 173.45,-2.21"/>
    </edge>
    <edge id=":J56_3" function="internal">
        <lane id=":J56_3_0" index="0" speed="9.47" length="4.89" shape="195.14,-0.92 190.31,-1.68"/>
    </edge>
    <edge id=":J56_16" function="internal">
        <lane id=":J56_16_0" index="0" speed="9.47" length="15.15" shape="190.31,-1.68 189.90,-1.75 186.14,-4.17 183.86,-8.18 183.06,-13.77"/>
    </edge>
    <edge id=":J56_4" function="internal">
        <lane id=":J56_4_0" index="0" speed="6.80" length="9.84" shape="189.46,-13.84 189.84,-11.00 190.92,-8.97 192.70,-7.74 195.18,-7.32"/>
    </edge>
    <edge id=":J56_5" function="internal">
        <lane id=":J56_5_0" index="0" speed="13.89" length="21.65" shape="189.46,-13.84 189.48,7.84"/>
        <lane id=":J56_5_1" index="1" speed="13.89" length="21.65" shape="186.26,-13.81 186.28,7.82"/>
    </edge>
    <edge id=":J56_7" function="internal">
        <lane id=":J56_7_0" index="0" speed="9.08" length="5.28" shape="186.26,-13.81 185.56,-8.57"/>
    </edge>
    <edge id=":J56_17" function="internal">
        <lane id=":J56_17_0" index="0" speed="9.08" length="15.00" shape="185.56,-8.57 185.51,-8.20 183.12,-4.40 179.10,-2.40 173.45,-2.21"/>
    </edge>
    <edge id=":J56_8" function="internal">
        <lane id=":J56_8_0" index="0" speed="6.26" length="9.04" shape="174.15,-8.57 176.67,-8.66 178.46,-9.55 179.52,-11.24 179.86,-13.74"/>
    </edge>
    <edge id=":J56_9" function="internal">
        <lane id=":J56_9_0" index="0" speed="13.89" length="21.25" shape="174.15,-8.57 180.22,-7.92 184.64,-7.56 189.07,-7.39 195.18,-7.32"/>
        <lane id=":J56_9_1" index="1" speed="13.89" length="21.25" shape="173.80,-5.39 179.93,-4.74 184.46,-4.37 189.00,-4.19 195.16,-4.12"/>
    </edge>
    <edge id=":J56_11" function="internal">
        <lane id=":J56_11_0" index="0" speed="9.84" length="5.29" shape="173.80,-5.39 178.94,-4.13"/>
    </edge>
    <edge id=":J56_18" function="internal">
        <lane id=":J56_18_0" index="0" speed="9.84" length="14.99" shape="178.94,-4.13 179.30,-4.05 183.21,-1.40 185.54,2.55 186.28,7.82"/>
    </edge>
    <edge id=":J56_12" function="internal">
        <lane id=":J56_12_0" index="0" speed="7.29" length="10.70" shape="179.88,7.76 179.48,5.07 178.21,3.04 176.09,1.68 173.10,0.97"/>
    </edge>
    <edge id=":J56_13" function="internal">
        <lane id=":J56_13_0" index="0" speed="13.89" length="21.53" shape="179.88,7.76 179.86,-13.74"/>
        <lane id=":J56_13_1" index="1" speed="13.89" length="21.53" shape="183.08,7.79 183.06,-13.77"/>
    </edge>
    <edge id=":J56_15" function="internal">
        <lane id=":J56_15_0" index="0" speed="9.26" length="4.71" shape="183.08,7.79 183.79,3.13"/>
    </edge>
    <edge id=":J56_19" function="internal">
        <lane id=":J56_19_0" index="0" speed="9.26" length="14.62" shape="183.79,3.13 183.88,2.55 186.15,-1.18 189.92,-3.40 195.16,-4.12"/>
    </edge>
    <edge id=":J73_0" function="internal">
        <lane id=":J73_0_0" index="0" speed="6.93" length="8.90" shape="70.65,-80.51 68.19,-80.48 66.22,-79.76 64.74,-78.36 63.74,-76.28"/>
    </edge>
    <edge id=":J73_1" function="internal">
        <lane id=":J73_1_0" index="0" speed="8.01" length="13.55" shape="70.65,-80.51 67.08,-81.44 64.59,-83.28 63.18,-86.03 62.85,-89.70"/>
    </edge>
    <edge id=":J73_2" function="internal">