<?xml version="1.0" encoding="UTF-8"?>

<!-- generated on 2024-01-19 11:15:02 by Eclipse SUMO netedit Version 1.18.0
<configuration xmlns:xsi="http://www.w3.org/2001/XMLSchema-instance" xsi:noNamespaceSchemaLocation="http://sumo.dlr.de/xsd/neteditConfiguration.xsd">

    <input>
        <sumo-net-file value="C:\Users\chuny\Desktop\lucas\TimIssue11\traffic_optimization\mynetworks\school.net.xml"/>
    </input>

    <output>
        <output-file value="C:\Users\chuny\Desktop\lucas\TimIssue11\traffic_optimization\mynetworks\school.net.xml"/>
    </output>

    <processing>
        <offset.disable-normalization value="true"/>
    </processing>

    <junctions>
        <no-turnarounds value="true"/>
    </junctions>

    <netedit>
        <new-network value="false"/>
    </netedit>

</configuration>
-->

<net version="1.16" junctionCornerDetail="5" limitTurnSpeed="5.50" xmlns:xsi="http://www.w3.org/2001/XMLSchema-instance" xsi:noNamespaceSchemaLocation="http://sumo.dlr.de/xsd/net_file.xsd">

    <location netOffset="0.00,0.00" convBoundary="-277.23,-418.26,302.92,183.78" origBoundary="10000000000.00,10000000000.00,-10000000000.00,-10000000000.00" projParameter="!"/>

    <edge id=":J11_0" function="internal">
        <lane id=":J11_0_0" index="0" speed="6.49" length="9.03" shape="-155.27,91.15 -155.62,88.70 -156.67,86.95 -158.42,85.91 -160.88,85.58"/>
    </edge>
    <edge id=":J11_1" function="internal">
        <lane id=":J11_1_0" index="0" speed="13.89" length="21.31" shape="-155.27,91.15 -155.12,69.83"/>
        <lane id=":J11_1_1" index="1" speed="13.89" length="21.31" shape="-152.07,91.16 -151.92,69.87"/>
    </edge>
    <edge id=":J11_3" function="internal">
        <lane id=":J11_3_0" index="0" speed="9.56" length="5.11" shape="-152.07,91.16 -151.33,86.10"/>
    </edge>
    <edge id=":J11_16" function="internal">
        <lane id=":J11_16_0" index="0" speed="9.56" length="14.77" shape="-151.33,86.10 -151.30,85.88 -148.98,82.02 -145.13,79.58 -139.73,78.56"/>
    </edge>
    <edge id=":J11_4" function="internal">
        <lane id=":J11_4_0" index="0" speed="6.92" length="9.95" shape="-139.41,84.95 -142.15,85.46 -144.10,86.66 -145.28,88.57 -145.67,91.16"/>
    </edge>
    <edge id=":J11_5" function="internal">
        <lane id=":J11_5_0" index="0" speed="13.89" length="21.41" shape="-139.41,84.95 -160.88,85.58"/>
        <lane id=":J11_5_1" index="1" speed="13.89" length="21.41" shape="-139.57,81.76 -160.90,82.38"/>
    </edge>
    <edge id=":J11_7" function="internal">
        <lane id=":J11_7_0" index="0" speed="9.16" length="5.49" shape="-139.57,81.76 -145.03,81.25"/>
    </edge>
    <edge id=":J11_17" function="internal">
        <lane id=":J11_17_0" index="0" speed="9.16" length="14.36" shape="-145.03,81.25 -148.91,79.10 -151.21,75.31 -151.92,69.87"/>
    </edge>
    <edge id=":J11_8" function="internal">
        <lane id=":J11_8_0" index="0" speed="6.37" length="9.04" shape="-145.52,69.95 -145.20,72.43 -144.15,74.16 -142.39,75.13 -139.90,75.36"/>
    </edge>
    <edge id=":J11_9" function="internal">
        <lane id=":J11_9_0" index="0" speed="13.89" length="21.23" shape="-145.52,69.95 -145.67,91.16"/>
        <lane id=":J11_9_1" index="1" speed="13.89" length="21.23" shape="-148.72,69.91 -148.87,91.16"/>
    </edge>
    <edge id=":J11_11" function="internal">
        <lane id=":J11_11_0" index="0" speed="9.42" length="4.98" shape="-148.72,69.91 -149.47,74.83"/>
    </edge>
    <edge id=":J11_18" function="internal">
        <lane id=":J11_18_0" index="0" speed="9.42" length="14.81" shape="-149.47,74.83 -149.54,75.34 -151.85,79.22 -155.63,81.57 -160.90,82.38"/>
    </edge>
    <edge id=":J11_12" function="internal">
        <lane id=":J11_12_0" index="0" speed="6.73" length="9.61" shape="-160.94,75.98 -158.42,75.58 -156.62,74.42 -155.52,72.50 -155.12,69.83"/>
    </edge>
    <edge id=":J11_13" function="internal">
        <lane id=":J11_13_0" index="0" speed="13.89" length="21.12" shape="-160.94,75.98 -139.90,75.36"/>
        <lane id=":J11_13_1" index="1" speed="13.89" length="21.12" shape="-160.92,79.18 -139.73,78.56"/>
    </edge>
    <edge id=":J11_15" function="internal">
        <lane id=":J11_15_0" index="0" speed="9.25" length="4.34" shape="-160.92,79.18 -156.62,79.76"/>
    </edge>
    <edge id=":J11_19" function="internal">
        <lane id=":J11_19_0" index="0" speed="9.25" length="15.08" shape="-156.62,79.76 -155.64,79.90 -151.88,82.13 -149.62,85.89 -148.87,91.16"/>
    </edge>
    <edge id=":J12_0" function="internal">
        <lane id=":J12_0_0" index="0" speed="6.47" length="9.06" shape="-138.76,-19.60 -141.23,-19.33 -143.00,-18.33 -144.08,-16.60 -144.46,-14.13"/>
    </edge>
    <edge id=":J12_1" function="internal">
        <lane id=":J12_1_0" index="0" speed="13.89" length="20.96" shape="-138.76,-19.60 -159.64,-19.81"/>
        <lane id=":J12_1_1" index="1" speed="13.89" length="20.96" shape="-138.65,-22.80 -159.69,-23.01"/>
    </edge>
    <edge id=":J12_3" function="internal">
        <lane id=":J12_3_0" index="0" speed="9.50" length="4.34" shape="-138.65,-22.80 -142.93,-23.55"/>
    </edge>
    <edge id=":J12_16" function="internal">
        <lane id=":J12_16_0" index="0" speed="9.50" length="15.28" shape="-142.93,-23.55 -143.93,-23.73 -147.74,-26.10 -150.07,-29.91 -150.91,-35.15"/>
    </edge>
    <edge id=":J12_4" function="internal">
        <lane id=":J12_4_0" index="0" speed="6.84" length="9.70" shape="-144.51,-35.27 -144.09,-32.69 -142.94,-30.82 -141.05,-29.65 -138.42,-29.20"/>
    </edge>
    <edge id=":J12_5" function="internal">
        <lane id=":J12_5_0" index="0" speed="13.89" length="21.09" shape="-144.51,-35.27 -144.46,-14.13"/>
        <lane id=":J12_5_1" index="1" speed="13.89" length="21.09" shape="-147.71,-35.21 -147.66,-14.17"/>
    </edge>
    <edge id=":J12_7" function="internal">
        <lane id=":J12_7_0" index="0" speed="9.29" length="5.31" shape="-147.71,-35.21 -148.38,-29.94"/>
    </edge>
    <edge id=":J12_17" function="internal">
        <lane id=":J12_17_0" index="0" speed="9.29" length="14.19" shape="-148.38,-29.94 -150.60,-26.15 -154.37,-23.84 -159.69,-23.01"/>
    </edge>
    <edge id=":J12_8" function="internal">
        <lane id=":J12_8_0" index="0" speed="6.55" length="9.17" shape="-159.78,-29.41 -157.27,-29.80 -155.48,-30.87 -154.43,-32.64 -154.11,-35.10"/>
    </edge>
    <edge id=":J12_9" function="internal">
        <lane id=":J12_9_0" index="0" speed="13.89" length="21.28" shape="-159.78,-29.41 -138.42,-29.20"/>
        <lane id=":J12_9_1" index="1" speed="13.89" length="21.28" shape="-159.73,-26.21 -138.53,-26.00"/>
    </edge>
    <edge id=":J12_11" function="internal">
        <lane id=":J12_11_0" index="0" speed="9.21" length="5.38" shape="-159.73,-26.21 -154.40,-25.53"/>
    </edge>
    <edge id=":J12_18" function="internal">
        <lane id=":J12_18_0" index="0" speed="9.21" length="14.18" shape="-154.40,-25.53 -150.60,-23.29 -148.36,-19.51 -147.66,-14.17"/>
    </edge>
    <edge id=":J12_12" function="internal">
        <lane id=":J12_12_0" index="0" speed="6.45" length="9.03" shape="-154.06,-14.25 -154.38,-16.71 -155.42,-18.46 -157.17,-19.49 -159.64,-19.81"/>
    </edge>
    <edge id=":J12_13" function="internal">
        <lane id=":J12_13_0" index="0" speed="13.89" length="20.90" shape="-154.06,-14.25 -154.11,-35.10"/>
        <lane id=":J12_13_1" index="1" speed="13.89" length="20.90" shape="-150.86,-14.21 -150.91,-35.15"/>
    </edge>
    <edge id=":J12_15" function="internal">
        <lane id=":J12_15_0" index="0" speed="9.23" length="4.55" shape="-150.86,-14.21 -150.16,-18.71"/>
    </edge>
    <edge id=":J12_19" function="internal">
        <lane id=":J12_19_0" index="0" speed="9.23" length="15.00" shape="-150.16,-18.71 -150.03,-19.53 -147.70,-23.27 -143.87,-25.42 -138.53,-26.00"/>
    </edge>
    <edge id=":J13_0" function="internal">
        <lane id=":J13_0_0" index="0" speed="13.89" length="14.85" shape="-155.28,-101.72 -155.38,-116.60"/>
        <lane id=":J13_0_1" index="1" speed="13.89" length="14.85" shape="-152.08,-101.78 -152.18,-116.60"/>
    </edge>
    <edge id=":J13_2" function="internal">
        <lane id=":J13_2_0" index="0" speed="9.79" length="3.09" shape="-152.08,-101.78 -151.40,-104.79"/>
    </edge>
    <edge id=":J13_8" function="internal">
        <lane id=":J13_8_0" index="0" speed="9.79" length="14.06" shape="-151.40,-104.79 -151.36,-104.95 -149.09,-107.75 -145.26,-110.18 -139.88,-112.24"/>
    </edge>
    <edge id=":J13_3" function="internal">
        <lane id=":J13_3_0" index="0" speed="7.84" length="10.70" shape="-138.95,-109.18 -141.93,-107.94 -144.04,-106.32 -145.29,-104.30 -145.68,-101.89"/>
    </edge>
    <edge id=":J13_4" function="internal">
        <lane id=":J13_4_0" index="0" speed="8.28" length="18.70" shape="-138.95,-109.18 -144.74,-108.13 -148.87,-109.02 -151.35,-111.84 -152.18,-116.60"/>
    </edge>
    <edge id=":J13_5" function="internal">
        <lane id=":J13_5_0" index="0" speed="5.96" length="9.09" shape="-145.78,-116.60 -145.41,-114.02 -144.30,-112.43 -142.46,-111.84 -139.88,-112.24"/>
    </edge>
    <edge id=":J13_6" function="internal">
        <lane id=":J13_6_0" index="0" speed="13.89" length="14.74" shape="-145.78,-116.60 -145.68,-101.89"/>
        <lane id=":J13_6_1" index="1" speed="13.89" length="14.74" shape="-148.98,-116.60 -148.88,-101.84"/>
    </edge>
    <edge id=":J25_0" function="internal">
        <lane id=":J25_0_0" index="0" speed="6.71" length="9.47" shape="-155.39,-289.73 -155.75,-292.32 -156.83,-294.19 -158.63,-295.34 -161.15,-295.77"/>
    </edge>
    <edge id=":J25_1" function="internal">
        <lane id=":J25_1_0" index="0" speed="13.89" length="21.08" shape="-155.39,-289.73 -155.19,-310.84"/>
        <lane id=":J25_1_1" index="1" speed="13.89" length="21.08" shape="-152.19,-289.73 -151.99,-310.78"/>
    </edge>
    <edge id=":J25_3" function="internal">
        <lane id=":J25_3_0" index="0" speed="9.21" length="5.23" shape="-152.19,-289.73 -151.45,-294.91"/>
    </edge>
    <edge id=":J25_16" function="internal">
        <lane id=":J25_16_0" index="0" speed="9.21" length="14.33" shape="-151.45,-294.91 -151.42,-295.06 -149.13,-298.81 -145.32,-301.00 -139.97,-301.62"/>
    </edge>
    <edge id=":J25_4" function="internal">
        <lane id=":J25_4_0" index="0" speed="6.45" length="9.03" shape="-140.15,-295.22 -142.61,-294.94 -144.38,-293.93 -145.44,-292.19 -145.79,-289.73"/>
    </edge>
    <edge id=":J25_5" function="internal">
        <lane id=":J25_5_0" index="0" speed="13.89" length="21.01" shape="-140.15,-295.22 -161.15,-295.77"/>
        <lane id=":J25_5_1" index="1" speed="13.89" length="21.01" shape="-140.06,-298.42 -161.07,-298.97"/>
    </edge>
    <edge id=":J25_7" function="internal">
        <lane id=":J25_7_0" index="0" speed="9.33" length="5.04" shape="-140.06,-298.42 -145.03,-299.26"/>
    </edge>
    <edge id=":J25_17" function="internal">
        <lane id=":J25_17_0" index="0" speed="9.33" length="14.51" shape="-145.03,-299.26 -145.36,-299.32 -149.12,-301.67 -151.33,-305.49 -151.99,-310.78"/>
    </edge>
    <edge id=":J25_8" function="internal">
        <lane id=":J25_8_0" index="0" speed="6.61" length="9.29" shape="-145.59,-310.65 -145.27,-308.16 -144.22,-306.36 -142.42,-305.24 -139.88,-304.82"/>
    </edge>
    <edge id=":J25_9" function="internal">
        <lane id=":J25_9_0" index="0" speed="13.89" length="20.95" shape="-145.59,-310.65 -145.79,-289.73"/>
        <lane id=":J25_9_1" index="1" speed="13.89" length="20.95" shape="-148.79,-310.71 -148.99,-289.73"/>
    </edge>
    <edge id=":J25_11" function="internal">
        <lane id=":J25_11_0" index="0" speed="9.25" length="4.70" shape="-148.79,-310.71 -149.54,-306.08"/>
    </edge>
    <edge id=":J25_18" function="internal">
        <lane id=":J25_18_0" index="0" speed="9.25" length="14.70" shape="-149.54,-306.08 -149.64,-305.46 -151.97,-301.76 -155.78,-299.59 -161.07,-298.97"/>
    </edge>
    <edge id=":J25_12" function="internal">
        <lane id=":J25_12_0" index="0" speed="6.49" length="9.03" shape="-160.90,-305.37 -158.44,-305.66 -156.67,-306.67 -155.59,-308.39 -155.19,-310.84"/>
    </edge>
    <edge id=":J25_13" function="internal">
        <lane id=":J25_13_0" index="0" speed="13.89" length="21.02" shape="-160.90,-305.37 -139.88,-304.82"/>
        <lane id=":J25_13_1" index="1" speed="13.89" length="21.02" shape="-160.98,-302.17 -139.97,-301.62"/>
    </edge>
    <edge id=":J25_15" function="internal">
        <lane id=":J25_15_0" index="0" speed="9.40" length="5.01" shape="-160.98,-302.17 -156.05,-301.33"/>
    </edge>
    <edge id=":J25_19" function="internal">
        <lane id=":J25_19_0" index="0" speed="9.40" length="14.59" shape="-156.05,-301.33 -155.74,-301.28 -151.99,-298.91 -149.74,-295.06 -148.99,-289.73"/>
    </edge>
    <edge id=":J33_0" function="internal">
        <lane id=":J33_0_0" index="0" speed="5.69" length="9.22" shape="-55.13,-288.30 -57.70,-289.30 -59.54,-289.06 -60.65,-287.58 -61.03,-284.85"/>
    </edge>
    <edge id=":J33_1" function="internal">
        <lane id=":J33_1_0" index="0" speed="13.89" length="16.50" shape="-55.13,-288.30 -59.18,-290.63 -62.07,-292.13 -65.15,-292.96 -69.74,-293.30"/>
        <lane id=":J33_1_1" index="1" speed="13.89" length="16.50" shape="-53.58,-291.10 -58.03,-293.65 -61.22,-295.26 -64.61,-296.14 -69.66,-296.50"/>
    </edge>
    <edge id=":J33_3" function="internal">
        <lane id=":J33_3_0" index="0" speed="13.89" length="19.59" shape="-69.48,-302.90 -63.52,-302.50 -59.50,-301.51 -55.72,-299.67 -50.47,-296.68"/>
        <lane id=":J33_3_1" index="1" speed="13.89" length="19.59" shape="-69.57,-299.70 -64.07,-299.32 -60.36,-298.38 -56.87,-296.66 -52.02,-293.89"/>
    </edge>
    <edge id=":J33_5" function="internal">
        <lane id=":J33_5_0" index="0" speed="9.27" length="3.68" shape="-69.57,-299.70 -66.02,-298.74"/>
    </edge>
    <edge id=":J33_8" function="internal">
        <lane id=":J33_8_0" index="0" speed="9.27" length="15.42" shape="-66.02,-298.74 -65.80,-298.69 -63.12,-295.87 -61.53,-291.26 -61.03,-284.85"/>
    </edge>
    <edge id=":J33_6" function="internal">
        <lane id=":J33_6_0" index="0" speed="7.26" length="11.31" shape="-64.23,-284.87 -64.56,-288.50 -65.58,-291.12 -67.31,-292.72 -69.74,-293.30"/>
    </edge>
    <edge id=":J33_7" function="internal">
        <lane id=":J33_7_0" index="0" speed="8.15" length="20.39" shape="-64.23,-284.87 -63.43,-291.34 -61.13,-295.00 -57.33,-295.85 -52.02,-293.89"/>
    </edge>
    <edge id=":J39_0" function="internal">
        <lane id=":J39_0_0" index="0" speed="6.16" length="6.14" shape="-61.96,-136.19 -62.18,-134.58 -62.82,-133.29 -63.88,-132.30 -65.35,-131.63"/>
    </edge>
    <edge id=":J39_1" function="internal">
        <lane id=":J39_1_0" index="0" speed="3.95" length="2.05" shape="-66.29,-134.69 -65.80,-134.92 -65.44,-135.25 -65.23,-135.68 -65.16,-136.21"/>
    </edge>
    <edge id=":J44_0" function="internal">
        <lane id=":J44_0_0" index="0" speed="7.08" length="9.55" shape="62.53,-249.40 62.04,-252.05 60.93,-254.02 59.20,-255.30 56.84,-255.91"/>
    </edge>
    <edge id=":J44_1" function="internal">
        <lane id=":J44_1_0" index="0" speed="8.58" length="17.17" shape="62.53,-249.40 62.79,-254.77 64.30,-258.61 67.06,-260.91 71.06,-261.69"/>
    </edge>
    <edge id=":J44_2" function="internal">
        <lane id=":J44_2_0" index="0" speed="6.39" length="9.04" shape="71.08,-255.29 68.61,-254.93 66.90,-253.86 65.94,-252.08 65.73,-249.59"/>
    </edge>
    <edge id=":J44_3" function="internal">
        <lane id=":J44_3_0" index="0" speed="13.89" length="14.10" shape="71.08,-255.29 66.85,-255.28 63.95,-255.33 61.06,-255.51 56.84,-255.91"/>
        <lane id=":J44_3_1" index="1" speed="13.89" length="14.10" shape="71.07,-258.49 66.94,-258.48 64.10,-258.53 61.28,-258.71 57.16,-259.09"/>
    </edge>
    <edge id=":J44_5" function="internal">
        <lane id=":J44_5_0" index="0" speed="13.89" length="13.45" shape="57.79,-265.46 61.72,-265.09 64.41,-264.92 67.11,-264.88 71.06,-264.89"/>
        <lane id=":J44_5_1" index="1" speed="13.89" length="13.45" shape="57.48,-262.28 61.50,-261.90 64.26,-261.72 67.02,-261.68 71.06,-261.69"/>
    </edge>
    <edge id=":J44_7" function="internal">
        <lane id=":J44_7_0" index="0" speed="9.14" length="3.31" shape="57.48,-262.28 60.63,-261.26"/>
    </edge>
    <edge id=":J44_8" function="internal">
        <lane id=":J44_8_0" index="0" speed="9.14" length="13.24" shape="60.63,-261.26 60.82,-261.20 63.31,-258.73 64.95,-254.86 65.73,-249.59"/>
    </edge>
    <edge id=":J45_0" function="internal">
        <lane id=":J45_0_0" index="0" speed="6.51" length="9.05" shape="176.50,-249.96 176.15,-252.42 175.09,-254.18 173.34,-255.23 170.89,-255.57"/>
    </edge>
    <edge id=":J45_1" function="internal">
        <lane id=":J45_1_0" index="0" speed="13.89" length="20.82" shape="176.50,-249.96 176.48,-270.79"/>
        <lane id=":J45_1_1" index="1" speed="13.89" length="20.82" shape="179.70,-249.97 179.68,-270.79"/>
    </edge>
    <edge id=":J45_3" function="internal">
        <lane id=":J45_3_0" index="0" speed="9.25" length="5.05" shape="179.70,-249.97 180.41,-254.97"/>
    </edge>
    <edge id=":J45_16" function="internal">
        <lane id=":J45_16_0" index="0" speed="9.25" length="14.34" shape="180.41,-254.97 180.44,-255.23 182.69,-258.99 186.45,-261.24 191.71,-261.98"/>
    </edge>
    <edge id=":J45_4" function="internal">
        <lane id=":J45_4_0" index="0" speed="6.50" length="9.03" shape="191.70,-255.58 189.25,-255.23 187.50,-254.18 186.45,-252.43 186.10,-249.98"/>
    </edge>
    <edge id=":J45_5" function="internal">
        <lane id=":J45_5_0" index="0" speed="13.89" length="20.82" shape="191.70,-255.58 170.89,-255.57"/>
        <lane id=":J45_5_1" index="1" speed="13.89" length="20.82" shape="191.71,-258.78 170.88,-258.77"/>
    </edge>
    <edge id=":J45_7" function="internal">
        <lane id=":J45_7_0" index="0" speed="9.27" length="4.95" shape="191.71,-258.78 186.81,-259.49"/>
    </edge>
    <edge id=":J45_17" function="internal">
        <lane id=":J45_17_0" index="0" speed="9.27" length="14.42" shape="186.81,-259.49 186.44,-259.54 182.69,-261.79 180.43,-265.54 179.68,-270.79"/>
    </edge>
    <edge id=":J45_8" function="internal">
        <lane id=":J45_8_0" index="0" speed="6.52" length="9.06" shape="186.08,-270.79 186.43,-268.34 187.49,-266.59 189.25,-265.53 191.72,-265.18"/>
    </edge>
    <edge id=":J45_9" function="internal">
        <lane id=":J45_9_0" index="0" speed="13.89" length="20.81" shape="186.08,-270.79 186.10,-249.98"/>
        <lane id=":J45_9_1" index="1" speed="13.89" length="20.81" shape="182.88,-270.79 182.90,-249.98"/>
    </edge>
    <edge id=":J45_11" function="internal">
        <lane id=":J45_11_0" index="0" speed="9.27" length="4.97" shape="182.88,-270.79 182.18,-265.86"/>
    </edge>
    <edge id=":J45_18" function="internal">
        <lane id=":J45_18_0" index="0" speed="9.27" length="14.38" shape="182.18,-265.86 182.13,-265.54 179.88,-261.79 176.13,-259.53 170.88,-258.77"/>
    </edge>
    <edge id=":J45_12" function="internal">
        <lane id=":J45_12_0" index="0" speed="6.52" length="9.05" shape="170.86,-265.17 173.32,-265.53 175.08,-266.58 176.13,-268.34 176.48,-270.79"/>
    </edge>
    <edge id=":J45_13" function="internal">
        <lane id=":J45_13_0" index="0" speed="13.89" length="20.85" shape="170.86,-265.17 191.72,-265.18"/>
        <lane id=":J45_13_1" index="1" speed="13.89" length="20.85" shape="170.87,-261.97 191.71,-261.98"/>
    </edge>
    <edge id=":J45_15" function="internal">
        <lane id=":J45_15_0" index="0" speed="9.26" length="5.09" shape="170.87,-261.97 175.91,-261.26"/>
    </edge>
    <edge id=":J45_19" function="internal">
        <lane id=":J45_19_0" index="0" speed="9.26" length="14.29" shape="175.91,-261.26 176.13,-261.23 179.88,-258.99 182.14,-255.24 182.90,-249.98"/>
    </edge>
    <edge id=":J52_0" function="internal">
        <lane id=":J52_0_0" index="0" speed="7.64" length="11.29" shape="52.91,-12.18 50.45,-11.95 48.39,-10.69 46.73,-8.39 45.47,-5.05"/>
    </edge>
    <edge id=":J52_1" function="internal">
        <lane id=":J52_1_0" index="0" speed="13.89" length="21.30" shape="52.91,-12.18 31.78,-13.61"/>
        <lane id=":J52_1_1" index="1" speed="13.89" length="21.30" shape="53.26,-15.36 31.89,-16.81"/>
    </edge>
    <edge id=":J52_3" function="internal">
        <lane id=":J52_3_0" index="0" speed="8.54" length="3.50" shape="53.26,-15.36 49.89,-16.31"/>
    </edge>
    <edge id=":J52_15" function="internal">
        <lane id=":J52_15_0" index="0" speed="8.54" length="15.18" shape="49.89,-16.31 48.54,-16.68 45.73,-19.41 44.81,-23.55 45.79,-29.09"/>
    </edge>
    <edge id=":J52_4" function="internal">
        <lane id=":J52_4_0" index="0" speed="6.35" length="9.81" shape="48.85,-28.15 48.51,-25.62 49.25,-23.70 51.06,-22.41 53.96,-21.72"/>
    </edge>
    <edge id=":J52_5" function="internal">
        <lane id=":J52_5_0" index="0" speed="13.89" length="23.27" shape="48.85,-28.15 48.07,-23.88 47.60,-18.43 46.90,-12.06 45.47,-5.05"/>
        <lane id=":J52_5_1" index="1" speed="13.89" length="23.27" shape="48.85,-28.15 42.38,-5.90"/>
    </edge>
    <edge id=":J52_7" function="internal">
        <lane id=":J52_7_0" index="0" speed="11.00" length="7.41" shape="48.85,-28.15 46.42,-23.01 45.19,-21.79"/>
    </edge>
    <edge id=":J52_16" function="internal">
        <lane id=":J52_16_0" index="0" speed="11.00" length="14.73" shape="45.19,-21.79 42.78,-19.41 37.94,-17.34 31.89,-16.81"/>
    </edge>
    <edge id=":J52_8" function="internal">
        <lane id=":J52_8_0" index="0" speed="9.41" length="15.97" shape="32.12,-23.20 37.37,-23.42 41.40,-24.47 44.21,-26.36 45.79,-29.09"/>
    </edge>
    <edge id=":J52_9" function="internal">
        <lane id=":J52_9_0" index="0" speed="13.89" length="21.77" shape="32.12,-23.20 53.96,-21.72"/>
        <lane id=":J52_9_1" index="1" speed="13.89" length="21.77" shape="32.01,-20.00 53.61,-18.54"/>
    </edge>
    <edge id=":J52_11" function="internal">
        <lane id=":J52_11_0" index="0" speed="8.96" length="6.03" shape="32.01,-20.00 37.94,-18.94"/>
    </edge>
    <edge id=":J52_17" function="internal">
        <lane id=":J52_17_0" index="0" speed="8.96" length="15.21" shape="37.94,-18.94 41.65,-16.23 43.13,-11.88 42.38,-5.90"/>
    </edge>
    <edge id=":J52_12" function="internal">
        <lane id=":J52_12_0" index="0" speed="6.06" length="9.07" shape="36.21,-7.59 36.53,-10.14 35.90,-12.00 34.32,-13.15 31.78,-13.61"/>
    </edge>
    <edge id=":J52_13" function="internal">
        <lane id=":J52_13_0" index="0" speed="13.89" length="23.58" shape="36.21,-7.59 38.61,-14.35 41.44,-20.17 44.04,-25.07 45.79,-29.09"/>
    </edge>
    <edge id=":J52_14" function="internal">
        <lane id=":J52_14_0" index="0" speed="10.10" length="6.26" shape="39.30,-6.74 41.52,-12.35 41.67,-12.52"/>
    </edge>
    <edge id=":J52_18" function="internal">
        <lane id=":J52_18_0" index="0" speed="10.10" length="14.18" shape="41.67,-12.52 44.65,-16.18 48.68,-18.25 53.61,-18.54"/>
    </edge>
    <edge id=":J54_0" function="internal">
        <lane id=":J54_0_0" index="0" speed="6.73" length="9.28" shape="176.85,-162.50 176.42,-164.92 175.29,-166.68 173.45,-167.78 170.90,-168.21"/>
    </edge>
    <edge id=":J54_1" function="internal">
        <lane id=":J54_1_0" index="0" speed="13.89" length="14.33" shape="176.85,-162.50 176.65,-176.87"/>
        <lane id=":J54_1_1" index="1" speed="13.89" length="14.33" shape="180.05,-162.59 179.85,-176.88"/>
    </edge>
    <edge id=":J54_3" function="internal">
        <lane id=":J54_3_0" index="0" speed="13.89" length="14.17" shape="186.25,-176.89 186.45,-162.76"/>
        <lane id=":J54_3_1" index="1" speed="13.89" length="14.17" shape="183.05,-176.88 183.25,-162.67"/>
    </edge>
    <edge id=":J54_5" function="internal">
        <lane id=":J54_5_0" index="0" speed="8.61" length="3.58" shape="183.05,-176.88 182.38,-173.36"/>
    </edge>
    <edge id=":J54_8" function="internal">
        <lane id=":J54_8_0" index="0" speed="8.61" length="13.48" shape="182.38,-173.36 182.30,-172.93 180.02,-170.17 176.22,-168.59 170.90,-168.21"/>
    </edge>
    <edge id=":J54_6" function="internal">
        <lane id=":J54_6_0" index="0" speed="6.43" length="9.03" shape="171.01,-171.41 173.48,-171.67 175.25,-172.67 176.31,-174.41 176.65,-176.87"/>
    </edge>
    <edge id=":J54_7" function="internal">
        <lane id=":J54_7_0" index="0" speed="8.85" length="16.78" shape="171.01,-171.41 176.28,-170.70 180.08,-169.01 182.40,-166.34 183.25,-162.67"/>
    </edge>
    <edge id=":J55_0" function="internal">
        <lane id=":J55_0_0" index="0" speed="7.04" length="9.75" shape="179.37,-62.71 178.96,-65.13 177.77,-66.95 175.81,-68.19 173.08,-68.84"/>
    </edge>
    <edge id=":J55_1" function="internal">
        <lane id=":J55_1_0" index="0" speed="13.89" length="14.51" shape="179.37,-62.71 179.09,-77.19"/>
        <lane id=":J55_1_1" index="1" speed="13.89" length="14.51" shape="182.57,-62.75 182.29,-77.28"/>
    </edge>
    <edge id=":J55_3" function="internal">
        <lane id=":J55_3_0" index="0" speed="13.89" length="14.61" shape="188.69,-77.45 188.97,-62.81"/>
        <lane id=":J55_3_1" index="1" speed="13.89" length="14.61" shape="185.49,-77.36 185.77,-62.78"/>
    </edge>
    <edge id=":J55_5" function="internal">
        <lane id=":J55_5_0" index="0" speed="8.45" length="4.07" shape="185.49,-77.36 184.86,-73.34"/>
    </edge>
    <edge id=":J55_8" function="internal">
        <lane id=":J55_8_0" index="0" speed="8.45" length="13.60" shape="184.86,-73.34 184.82,-73.09 182.52,-70.25 178.61,-68.83 173.08,-68.84"/>
    </edge>
    <edge id=":J55_6" function="internal">
        <lane id=":J55_6_0" index="0" speed="6.22" length="9.05" shape="173.45,-72.02 175.97,-72.09 177.76,-72.98 178.80,-74.68 179.09,-77.19"/>
    </edge>
    <edge id=":J55_7" function="internal">
        <lane id=":J55_7_0" index="0" speed="9.11" length="16.94" shape="173.45,-72.02 178.81,-70.92 182.65,-69.01 184.97,-66.30 185.77,-62.78"/>
    </edge>
    <edge id=":J56_0" function="internal">
        <lane id=":J56_0_0" index="0" speed="6.51" length="9.03" shape="195.12,2.28 192.67,2.62 190.91,3.66 189.85,5.40 189.48,7.85"/>
    </edge>
    <edge id=":J56_1" function="internal">
        <lane id=":J56_1_0" index="0" speed="13.89" length="21.91" shape="195.12,2.28 188.86,2.21 184.09,2.01 179.33,1.63 173.10,0.97"/>
        <lane id=":J56_1_1" index="1" speed="13.89" length="21.91" shape="195.14,-0.92 188.93,-0.99 184.27,-1.18 179.63,-1.55 173.45,-2.21"/>
    </edge>
    <edge id=":J56_3" function="internal">
        <lane id=":J56_3_0" index="0" speed="9.47" length="4.89" shape="195.14,-0.92 190.31,-1.68"/>
    </edge>
    <edge id=":J56_16" function="internal">
        <lane id=":J56_16_0" index="0" speed="9.47" length="15.15" shape="190.31,-1.68 189.90,-1.75 186.14,-4.17 183.86,-8.17 183.06,-13.77"/>
    </edge>
    <edge id=":J56_4" function="internal">
        <lane id=":J56_4_0" index="0" speed="6.80" length="9.84" shape="189.46,-13.83 189.84,-11.00 190.92,-8.96 192.70,-7.74 195.18,-7.32"/>
    </edge>
    <edge id=":J56_5" function="internal">
        <lane id=":J56_5_0" index="0" speed="13.89" length="21.65" shape="189.46,-13.83 189.48,7.85"/>
        <lane id=":J56_5_1" index="1" speed="13.89" length="21.65" shape="186.26,-13.80 186.28,7.82"/>
    </edge>
    <edge id=":J56_7" function="internal">
        <lane id=":J56_7_0" index="0" speed="9.08" length="5.28" shape="186.26,-13.80 185.55,-8.57"/>
    </edge>
    <edge id=":J56_17" function="internal">
        <lane id=":J56_17_0" index="0" speed="9.08" length="15.00" shape="185.55,-8.57 185.50,-8.20 183.12,-4.40 179.10,-2.40 173.45,-2.21"/>
    </edge>
    <edge id=":J56_8" function="internal">
        <lane id=":J56_8_0" index="0" speed="6.26" length="9.04" shape="174.15,-8.57 176.67,-8.65 178.46,-9.55 179.52,-11.24 179.86,-13.74"/>
    </edge>
    <edge id=":J56_9" function="internal">
        <lane id=":J56_9_0" index="0" speed="13.89" length="21.25" shape="174.15,-8.57 180.22,-7.92 184.64,-7.56 189.07,-7.38 195.18,-7.32"/>
        <lane id=":J56_9_1" index="1" speed="13.89" length="21.25" shape="173.80,-5.39 179.92,-4.74 184.46,-4.37 189.00,-4.19 195.16,-4.12"/>
    </edge>
    <edge id=":J56_11" function="internal">
        <lane id=":J56_11_0" index="0" speed="9.84" length="5.29" shape="173.80,-5.39 178.94,-4.13"/>
    </edge>
    <edge id=":J56_18" function="internal">
        <lane id=":J56_18_0" index="0" speed="9.84" length="14.99" shape="178.94,-4.13 179.30,-4.05 183.21,-1.40 185.54,2.56 186.28,7.82"/>
    </edge>
    <edge id=":J56_12" function="internal">
        <lane id=":J56_12_0" index="0" speed="7.29" length="10.70" shape="179.88,7.77 179.48,5.07 178.21,3.05 176.09,1.68 173.10,0.97"/>
    </edge>
    <edge id=":J56_13" function="internal">
        <lane id=":J56_13_0" index="0" speed="13.89" length="21.53" shape="179.88,7.77 179.86,-13.74"/>
        <lane id=":J56_13_1" index="1" speed="13.89" length="21.53" shape="183.08,7.79 183.06,-13.77"/>
    </edge>
    <edge id=":J56_15" function="internal">
        <lane id=":J56_15_0" index="0" speed="9.26" length="4.71" shape="183.08,7.79 183.78,3.13"/>
    </edge>
    <edge id=":J56_19" function="internal">
        <lane id=":J56_19_0" index="0" speed="9.26" length="14.62" shape="183.78,3.13 183.87,2.56 186.15,-1.17 189.91,-3.40 195.16,-4.12"/>
    </edge>
    <edge id=":J70_0" function="internal">
        <lane id=":J70_0_0" index="0" speed="9.10" length="14.14" shape="25.26,68.82 23.82,72.27 21.63,74.79 18.71,76.38 15.03,77.05"/>
        <lane id=":J70_0_1" index="1" speed="7.78" length="10.10" shape="22.18,67.98 21.15,70.44 19.58,72.24 17.49,73.38 14.87,73.85"/>
    </edge>
    <edge id=":J70_2" function="internal">